
  EPA STORM WATER MANAGEMENT MODEL - VERSION 5.2 (Build 5.2.4)
  PYSWMM TOOLKIT API - VERSION v1.0 (2023-11-27)
  ------------------------------------------------------------

  WARNING 04: minimum elevation drop used for Conduit C1
  WARNING 04: minimum elevation drop used for Conduit C2
  WARNING 04: minimum elevation drop used for Conduit C5
  WARNING 04: minimum elevation drop used for Conduit C8
  WARNING 04: minimum elevation drop used for Conduit C11
  WARNING 04: minimum elevation drop used for Conduit C14
  WARNING 04: minimum elevation drop used for Conduit C21
  WARNING 04: minimum elevation drop used for Conduit C23
  WARNING 04: minimum elevation drop used for Conduit C44
  WARNING 04: minimum elevation drop used for Conduit C80
  WARNING 04: minimum elevation drop used for Conduit C82
  WARNING 04: minimum elevation drop used for Conduit C102
  WARNING 02: maximum depth increased for Node 3975DN
  WARNING 02: maximum depth increased for Node 8095DN
  WARNING 02: maximum depth increased for Node 16096DN
  WARNING 02: maximum depth increased for Node 21977DN
  WARNING 02: maximum depth increased for Node 34000DN
  WARNING 02: maximum depth increased for Node 39190DN
  WARNING 02: maximum depth increased for Node 42837DN
  WARNING 02: maximum depth increased for Node 56094DN
  WARNING 02: maximum depth increased for Node 60000DN
  WARNING 02: maximum depth increased for Node 64000DN
  WARNING 02: maximum depth increased for Node 64700DN
  WARNING 02: maximum depth increased for Node 72920DN
  WARNING 02: maximum depth increased for Node 78275DN
  WARNING 02: maximum depth increased for Node 83000DN
  WARNING 02: maximum depth increased for Node 87000DN
  WARNING 02: maximum depth increased for Node 91115DN
  WARNING 02: maximum depth increased for Node 95000DN
  WARNING 02: maximum depth increased for Node 99000DN
  WARNING 02: maximum depth increased for Node 102700DN
  WARNING 02: maximum depth increased for Node 103000
  WARNING 02: maximum depth increased for Node 108000DN
  WARNING 02: maximum depth increased for Node 113000DN
  WARNING 02: maximum depth increased for Node 113700DN
  WARNING 02: maximum depth increased for Node 116200DN
  WARNING 02: maximum depth increased for Node 117600DN
  WARNING 02: maximum depth increased for Node 118000DN
  WARNING 02: maximum depth increased for Node 118400DN
  WARNING 02: maximum depth increased for Node 119400DN
  WARNING 02: maximum depth increased for Node 120000DN
  WARNING 02: maximum depth increased for Node 120200DN
  WARNING 02: maximum depth increased for Node 121100DN
  WARNING 02: maximum depth increased for Node 121800DN
  WARNING 02: maximum depth increased for Node 122500DN
  WARNING 02: maximum depth increased for Node 123000DN
  WARNING 02: maximum depth increased for Node 123700DN
  WARNING 02: maximum depth increased for Node 124200DN
  WARNING 02: maximum depth increased for Node 124700DN
  WARNING 02: maximum depth increased for Node 125300DN
  WARNING 02: maximum depth increased for Node 126100DN
  WARNING 02: maximum depth increased for Node 126900DN
  WARNING 02: maximum depth increased for Node 127200DN
  WARNING 02: maximum depth increased for Node 128100DN
  WARNING 02: maximum depth increased for Node 128800DN
  WARNING 02: maximum depth increased for Node 128500DN
  WARNING 02: maximum depth increased for Node 125700DN
  WARNING 02: maximum depth increased for Node 129100DN
  WARNING 02: maximum depth increased for Node 129700DN
  WARNING 02: maximum depth increased for Node 130000DN
  WARNING 02: maximum depth increased for Node 130800DN
  WARNING 02: maximum depth increased for Node 131200DN
  WARNING 02: maximum depth increased for Node 131600DN
  WARNING 02: maximum depth increased for Node 132100DN
  WARNING 02: maximum depth increased for Node 133000DN
  WARNING 02: maximum depth increased for Node 133300DN
  WARNING 02: maximum depth increased for Node 133900DN
  WARNING 02: maximum depth increased for Node 134600DN
  WARNING 02: maximum depth increased for Node 135200DN
  WARNING 02: maximum depth increased for Node 135500DN
  WARNING 02: maximum depth increased for Node 135900DN
  WARNING 02: maximum depth increased for Node 136300DN
  WARNING 02: maximum depth increased for Node 136800DN
  WARNING 02: maximum depth increased for Node 137200DN
  WARNING 02: maximum depth increased for Node 137600DN
  WARNING 02: maximum depth increased for Node 138100DN
  WARNING 02: maximum depth increased for Node 138400DN
  WARNING 02: maximum depth increased for Node 139700DN
  WARNING 02: maximum depth increased for Node 140800DN
  WARNING 02: maximum depth increased for Node 141100DN
  WARNING 02: maximum depth increased for Node 143500DN
  WARNING 02: maximum depth increased for Node 145100DN
  WARNING 02: maximum depth increased for Node 147900DN
  WARNING 02: maximum depth increased for Node 153800DN
  WARNING 02: maximum depth increased for Node 3000SG
  WARNING 02: maximum depth increased for Node 9000SG
  WARNING 02: maximum depth increased for Node 14000SG
  WARNING 02: maximum depth increased for Node 19000SG
  WARNING 02: maximum depth increased for Node 24000SG
  WARNING 02: maximum depth increased for Node 29000SG
  WARNING 02: maximum depth increased for Node 37000SG
  WARNING 02: maximum depth increased for Node 45000SG
  WARNING 02: maximum depth increased for Node 53000SG
  WARNING 02: maximum depth increased for Node 61000SG
  WARNING 02: maximum depth increased for Node 69000SG
  WARNING 02: maximum depth increased for Node 74000SG
  WARNING 02: maximum depth increased for Node 80000SG
  WARNING 02: maximum depth increased for Node 85000sg
  WARNING 02: maximum depth increased for Node 90000SG
  WARNING 02: maximum depth increased for Node 95000SG
  WARNING 02: maximum depth increased for Node 101000SG
  WARNING 02: maximum depth increased for Node 107000SG
  WARNING 02: maximum depth increased for Node 113000SG
  WARNING 02: maximum depth increased for Node 119000SG
  WARNING 02: maximum depth increased for Node 125000SG
  WARNING 02: maximum depth increased for Node 132000SG
  WARNING 02: maximum depth increased for Node 136900SG
  
  ****************
  Analysis Options
  ****************
  Flow Units ............... CMS
  Process Models:
    Rainfall/Runoff ........ YES
    RDII ................... NO
    Snowmelt ............... NO
    Groundwater ............ NO
    Flow Routing ........... YES
    Ponding Allowed ........ NO
    Water Quality .......... NO
  Infiltration Method ...... GREEN_AMPT
  Flow Routing Method ...... DYNWAVE
  Surcharge Method ......... EXTRAN
  Starting Date ............ 10/03/2025 00:00:00
  Ending Date .............. 10/10/2025 00:00:00
  Antecedent Dry Days ...... 0.0
  Report Time Step ......... 01:00:00
  Wet Time Step ............ 01:00:00
  Dry Time Step ............ 01:00:00
  Routing Time Step ........ 20.00 sec
  Variable Time Step ....... YES
  Maximum Trials ........... 8
  Number of Threads ........ 1
  Head Tolerance ........... 0.001500 m
  
  
  **************************        Volume         Depth
  Runoff Quantity Continuity     hectare-m            mm
  **************************     ---------       -------
  Total Precipitation ......    153069.876       372.325
  Evaporation Loss .........         0.000         0.000
  Infiltration Loss ........     18727.165        45.552
  Surface Runoff ...........    122858.411       298.839
  Final Storage ............     11836.474        28.791
  Continuity Error (%) .....        -0.230
  
  
  **************************        Volume        Volume
  Flow Routing Continuity        hectare-m      10^6 ltr
  **************************     ---------     ---------
  Dry Weather Inflow .......         0.000         0.000
  Wet Weather Inflow .......    122591.505   1225927.832
  Groundwater Inflow .......         0.000         0.000
  RDII Inflow ..............         0.000         0.000
  External Inflow ..........    246635.560   2466381.311
  External Outflow .........    334743.112   3347466.023
  Flooding Loss ............     69674.768    696754.942
  Evaporation Loss .........         0.000         0.000
  Exfiltration Loss ........         0.000         0.000
  Initial Stored Volume ....    190795.720   1907977.093
  Final Stored Volume ......    163764.621   1637663.289
  Continuity Error (%) .....        -1.457
  
  
  *************************
  Highest Continuity Errors
  *************************
  Node 99000DN (-2.76%)
  Node 49970DN (-2.74%)
  Node 102700DN (-1.63%)
  Node 21977DN (-1.50%)
  Node 11989DN (-1.42%)
  
  
  ***************************
  Time-Step Critical Elements
  ***************************
  Link C35 (95.70%)
  Link C59 (1.11%)
  
  
  ********************************
  Highest Flow Instability Indexes
  ********************************
  Link C44 (17)
  Link C45 (11)
  Link C43 (9)
  Link C31 (8)
  Link C34 (7)
  
  
  *********************************
  Most Frequent Nonconverging Nodes
  *********************************
  Node 158108DN (1.33%)
  Node 125300DN (1.29%)
  Node 125700DN (1.27%)
  Node 118000DN (0.03%)
  Node 118400DN (0.02%)
  
  
  *************************
  Routing Time Step Summary
  *************************
  Minimum Time Step           :     0.89 sec
  Average Time Step           :    15.02 sec
  Maximum Time Step           :    20.00 sec
  % of Time in Steady State   :     0.00
  Average Iterations per Step :     2.26
  % of Steps Not Converging   :     1.33
  Time Step Frequencies       :
     20.000 -  9.564 sec      :   100.00 %
      9.564 -  4.573 sec      :     0.00 %
      4.573 -  2.187 sec      :     0.00 %
      2.187 -  1.046 sec      :     0.00 %
      1.046 -  0.500 sec      :     0.00 %
  
  
  ***************************
  Subcatchment Runoff Summary
  ***************************
  
  ------------------------------------------------------------------------------------------------------------------------------
                            Total      Total      Total      Total     Imperv       Perv      Total       Total     Peak  Runoff
                           Precip      Runon       Evap      Infil     Runoff     Runoff     Runoff      Runoff   Runoff   Coeff
  Subcatchment                 mm         mm         mm         mm         mm         mm         mm    10^6 ltr      CMS
  ------------------------------------------------------------------------------------------------------------------------------
  S1                       372.32       0.00       0.00      45.39     180.74     119.64     300.38   101260.24   327.11   0.807
  S2                       372.32       0.00       0.00      46.41     179.58     113.70     293.28   185394.34   585.40   0.788
  S3                       372.32       0.00       0.00      44.90     181.22     122.21     303.44    96286.75   314.24   0.815
  S4                       372.32       0.00       0.00      42.88     183.00     131.34     314.34    25700.83    89.87   0.844
  S5                       372.32       0.00       0.00      42.28     183.48     133.65     317.13    28402.64   102.26   0.852
  S6                       372.32       0.00       0.00      41.00     184.48     137.98     322.46    11347.51    43.57   0.866
  S7                       372.32       0.00       0.00      42.33     183.44     133.47     316.91    20982.69    75.36   0.851
  S8                       372.32       0.00       0.00      43.86     182.18     127.23     309.41    12079.48    40.29   0.831
  S9                       372.32       0.00       0.00      43.17     182.76     130.16     312.92    13693.45    47.21   0.840
  S10                      372.32       0.00       0.00      44.35     181.75     124.96     306.71     9643.12    31.83   0.824
  S11                      372.32       0.00       0.00      43.46     182.52     128.95     311.47    18006.04    61.21   0.837
  S12                      372.32       0.00       0.00      44.92     181.21     122.14     303.35    12540.41    40.91   0.815
  S13                      372.32       0.00       0.00      45.23     180.90     120.51     301.42     7315.43    23.71   0.810
  S14                      372.32       0.00       0.00      43.92     182.13     126.95     309.08     7974.37    26.54   0.830
  S15                      372.32       0.00       0.00      44.14     181.94     125.95     307.88     5215.54    17.28   0.827
  S16                      372.32       0.00       0.00      45.33     180.79     119.94     300.73     8164.97    26.41   0.808
  S17                      372.32       0.00       0.00      45.31     180.82     120.09     300.91     8819.63    28.54   0.808
  S18                      372.32       0.00       0.00      45.00     181.13     121.72     302.85    24406.75    79.49   0.813
  S19                      372.32       0.00       0.00      44.80     181.33     122.75     304.08    17633.54    57.67   0.817
  S20                      372.32       0.00       0.00      46.28     179.74     114.49     294.24   178242.86   564.50   0.790
  S21                      372.32       0.00       0.00      46.30     179.72     114.41     294.13   165142.92   522.84   0.790
  S22                      372.32       0.00       0.00      45.85     180.24     117.08     297.33   270337.80   864.64   0.799
  
  
  ******************
  Node Depth Summary
  ******************
  
  ---------------------------------------------------------------------------------
                                 Average  Maximum  Maximum  Time of Max    Reported
                                   Depth    Depth      HGL   Occurrence   Max Depth
  Node                 Type       Meters   Meters   Meters  days hr:min      Meters
  ---------------------------------------------------------------------------------
  3975DN               JUNCTION     9.63    20.20    13.35     0  00:00       13.33
  11989DN              JUNCTION     8.84    19.73    12.03     0  00:00       13.95
  8095DN               JUNCTION     8.88    20.20    13.35     0  00:00       13.05
  16096DN              JUNCTION    10.71    17.02     7.40     0  00:01       15.65
  21977DN              JUNCTION    10.63    17.02     7.40     0  00:04       15.53
  28086DN              JUNCTION     7.73    14.80     8.01     0  00:00       12.20
  34000DN              JUNCTION     9.29    14.15     5.70     0  00:02       13.53
  39190DN              JUNCTION     9.21    14.58     6.13     0  00:12       13.13
  42837DN              JUNCTION    11.57    17.54     6.62     0  00:00       15.64
  44069DN              JUNCTION    12.60    18.60     6.62     0  00:00       16.58
  49970DN              JUNCTION    12.40    18.60     6.62     0  00:00       14.85
  56094DN              JUNCTION    10.81    12.61     2.20     0  00:03       12.61
  60000DN              JUNCTION     9.81    12.09     2.64     0  00:18       11.15
  64000DN              JUNCTION     9.76    12.43     2.98     0  00:09       11.41
  64700DN              JUNCTION    11.51    13.98     2.78     0  00:11       13.32
  68000DN              JUNCTION    14.55    17.64     3.39     0  00:00       16.26
  72920DN              JUNCTION    10.52    12.75     2.51     0  00:13       11.98
  78275DN              JUNCTION    11.39    13.61     2.47     0  00:25       13.31
  83000DN              JUNCTION    16.37    18.33     2.20     0  00:18       18.14
  87000DN              JUNCTION    14.81    16.78     2.20     0  00:14       16.61
  91115DN              JUNCTION    14.79    16.94     2.36     0  00:33       16.70
  95000DN              JUNCTION    17.30    19.77     2.66     0  00:00       18.76
  99000DN              JUNCTION    17.25    19.77     2.66     0  00:00       18.51
  102700DN             JUNCTION    13.56    15.49     2.01     0  00:09       14.24
  103000               JUNCTION    11.49    13.41     2.00     0  00:00       12.17
  108000DN             JUNCTION    13.68    15.61     2.00     0  00:00       14.34
  113000DN             JUNCTION    16.81    18.27     1.52     0  00:03       17.76
  113700DN             JUNCTION    24.15    25.64     1.60     0  00:19       25.64
  116200DN             JUNCTION    10.76    11.89     1.20     0  00:09       11.61
  117600DN             JUNCTION    27.26    27.88     0.68     0  00:02       27.88
  118000DN             JUNCTION    26.92    27.88     1.02     0  00:04       27.67
  118400DN             JUNCTION    25.16    26.15     1.05     0  00:04       26.02
  119400DN             JUNCTION    14.29    15.44     1.20     0  00:23       15.28
  120000DN             JUNCTION    12.55    14.08     1.58     0  00:09       13.39
  120200DN             JUNCTION    13.13    14.87     1.79     0  00:09       13.98
  121100DN             JUNCTION    14.61    15.78     1.22     0  02:03       15.56
  121800DN             JUNCTION    15.81    16.93     1.17     0  00:13       16.70
  122500DN             JUNCTION    18.05    19.18     1.18     0  00:30       18.85
  123000DN             JUNCTION    19.59    20.53     1.00     0  00:02       20.37
  123700DN             JUNCTION    16.55    17.86     1.36     0  00:28       17.36
  124200DN             JUNCTION    18.56    19.71     1.21     0  00:27       19.37
  124700DN             JUNCTION    20.04    21.22     1.24     0  00:26       20.87
  125300DN             JUNCTION    20.43    21.57     1.20     0  00:30       21.26
  126100DN             JUNCTION    17.34    18.45     1.15     0  02:12       18.18
  126900DN             JUNCTION    12.48    13.65     1.20     0  00:00       13.33
  127200DN             JUNCTION    11.59    12.73     1.17     0  02:13       12.43
  128100DN             JUNCTION    17.11    18.18     1.12     0  00:48       17.98
  128800DN             JUNCTION    15.26    16.21     1.00     0  00:35       16.17
  128500DN             JUNCTION    16.30    17.34     1.09     0  00:36       17.21
  125700DN             JUNCTION    20.41    21.56     1.19     0  00:30       21.23
  129100DN             JUNCTION    14.16    15.22     1.10     0  00:00       15.07
  129700DN             JUNCTION    14.28    15.32     1.08     0  00:37       15.18
  130000DN             JUNCTION    17.02    17.97     1.00     0  00:06       17.90
  130800DN             JUNCTION    15.44    16.59     1.19     0  01:47       16.34
  131200DN             JUNCTION    15.06    16.21     1.19     0  01:47       15.97
  131600DN             JUNCTION    17.25    18.36     1.15     0  01:47       18.17
  132100DN             JUNCTION    19.91    21.05     1.19     0  01:44       20.83
  133000DN             JUNCTION    20.14    21.39     1.30     0  01:44       21.06
  133300DN             JUNCTION    21.19    22.43     1.29     0  01:44       22.11
  133900DN             JUNCTION    22.50    23.65     1.20     0  01:44       23.43
  134600DN             JUNCTION    19.34    20.60     1.30     0  00:00       20.28
  135200DN             JUNCTION    15.99    16.95     1.00     0  00:00       16.95
  135500DN             JUNCTION    14.52    15.61     1.12     0  00:11       15.50
  135900DN             JUNCTION    14.74    15.82     1.11     0  00:12       15.71
  136300DN             JUNCTION    13.77    14.74     1.00     0  00:03       14.74
  136800DN             JUNCTION    12.25    13.33     1.10     0  01:56       13.24
  137200DN             JUNCTION    11.35    12.43     1.10     0  01:56       12.35
  137600DN             JUNCTION    11.26    12.36     1.12     0  00:16       12.26
  138100DN             JUNCTION    10.88    12.04     1.17     0  00:07       11.92
  138400DN             JUNCTION    11.92    13.08     1.18     0  00:07       13.00
  139700DN             JUNCTION    10.83    12.01     1.19     0  01:56       11.87
  140800DN             JUNCTION     9.46    10.66     1.20     0  00:05       10.52
  141100DN             JUNCTION     8.51     9.67     1.16     0  00:07        9.57
  143500DN             JUNCTION     9.87    11.19     1.30     0  00:00       11.01
  145100DN             JUNCTION    12.95    14.22     1.24     0  00:04       14.12
  147900DN             JUNCTION    15.31    16.56     1.21     6  15:29       16.53
  153800DN             JUNCTION    10.99    12.29     1.24     6  15:15       12.27
  3000SG               JUNCTION     9.02     9.06     2.06     0  02:42        9.04
  9000SG               JUNCTION     7.77     7.80     2.10     0  01:13        7.80
  14000SG              JUNCTION     7.76     7.83     2.13     0  03:03        7.83
  19000SG              JUNCTION     8.35     8.40     2.10     0  00:41        8.40
  24000SG              JUNCTION     8.04     8.10     2.10     0  00:24        8.10
  29000SG              JUNCTION     7.41     7.68     2.18     0  00:26        7.61
  37000SG              JUNCTION     8.25     9.30     2.50     0  00:00        8.90
  45000SG              JUNCTION     9.13    10.22     2.22     0  00:27       10.07
  53000SG              JUNCTION     9.78    10.97     2.17     0  00:45       10.94
  61000SG              JUNCTION     9.87    11.36     2.16     0  01:04       11.35
  69000SG              JUNCTION    13.75    15.50     2.20     0  01:20       15.41
  74000SG              JUNCTION    15.37    17.10     2.10     0  00:46       17.10
  80000SG              JUNCTION    14.27    16.34     2.34     0  00:51       16.29
  85000sg              JUNCTION    17.03    19.25     2.45     0  00:32       18.88
  90000SG              JUNCTION    20.19    22.53     2.53     0  00:18       21.80
  95000SG              JUNCTION    19.46    22.50     3.20     0  00:00       21.11
  101000SG             JUNCTION    19.64    22.79     3.29     0  00:15       21.14
  107000SG             JUNCTION    24.63    27.50     3.00     0  00:00       26.28
  113000SG             JUNCTION    20.63    23.10     2.60     0  00:00       21.38
  119000SG             JUNCTION    20.32    22.30     2.10     0  00:05       21.11
  125000SG             JUNCTION    15.62    17.53     2.02     0  00:14       16.98
  132000SG             JUNCTION    17.21    19.11     2.00     0  00:00       18.42
  136900SG             JUNCTION    17.18    19.11     2.00     0  00:00       18.40
  158108DN             OUTFALL     11.18    12.52     1.25     6  15:00       12.52
  0SG                  STORAGE      8.99     9.00     2.00     0  00:00        9.00
  0DN                  STORAGE     10.11    20.20    13.35     0  00:00       13.56
  
  
  *******************
  Node Inflow Summary
  *******************
  
  -------------------------------------------------------------------------------------------------
                                  Maximum  Maximum                  Lateral       Total        Flow
                                  Lateral    Total  Time of Max      Inflow      Inflow     Balance
                                   Inflow   Inflow   Occurrence      Volume      Volume       Error
  Node                 Type           CMS      CMS  days hr:min    10^6 ltr    10^6 ltr     Percent
  -------------------------------------------------------------------------------------------------
  3975DN               JUNCTION    28.541 2685.108     0  00:23     8.8e+03    4.95e+05      -1.199
  11989DN              JUNCTION     0.000 5892.040     0  00:18           0    5.07e+05      -1.398
  8095DN               JUNCTION     0.000 4720.794     0  00:25           0    5.01e+05      -1.291
  16096DN              JUNCTION    26.539 9811.901     0  00:09    7.96e+03    5.23e+05      -1.019
  21977DN              JUNCTION     0.000 5457.943     0  00:40           0    5.18e+05      -1.481
  28086DN              JUNCTION     0.000 4454.490     0  00:27           0    5.26e+05      -1.879
  34000DN              JUNCTION     0.000 5691.050     0  00:15           0    5.36e+05      -1.167
  39190DN              JUNCTION     0.000 5269.232     0  00:42           0    5.38e+05      -0.743
  42837DN              JUNCTION    26.407 5009.816     0  00:48    8.15e+03    5.52e+05      -0.290
  44069DN              JUNCTION     0.000 4457.462     0  00:50           0    5.55e+05      -0.418
  49970DN              JUNCTION    17.284 5850.664     0  00:40     5.2e+03    5.82e+05      -2.664
  56094DN              JUNCTION     0.00015561.195     0  00:12           0    6.49e+05      -0.722
  60000DN              JUNCTION    23.713 3758.459     0  03:02     7.3e+03    6.68e+05      -0.369
  64000DN              JUNCTION     0.000 3906.907     0  03:02           0    6.92e+05      -0.228
  64700DN              JUNCTION     0.000 4053.168     0  02:56           0    7.12e+05      -0.177
  68000DN              JUNCTION     0.000 4020.984     0  02:52           0    7.52e+05      -0.916
  72920DN              JUNCTION    40.914 4372.381     0  02:42    1.25e+04    8.52e+05      -0.828
  78275DN              JUNCTION     0.000 4305.349     0  01:54           0    9.59e+05      -0.703
  83000DN              JUNCTION     0.000 4758.493     0  02:03           0    1.05e+06      -0.449
  87000DN              JUNCTION     0.000 4967.551     0  02:12           0    1.11e+06      -0.346
  91115DN              JUNCTION     0.000 5441.586     0  02:12           0    1.16e+06      -0.248
  95000DN              JUNCTION    31.826 4963.679     0  02:19    9.62e+03     1.2e+06      -0.234
  99000DN              JUNCTION     0.000 4799.238     0  02:31           0    1.42e+06      -2.688
  102700DN             JUNCTION     0.000 7610.249     0  01:05           0    1.81e+06      -1.607
  103000               JUNCTION     0.00018564.422     0  00:31           0    2.04e+06      -0.398
  108000DN             JUNCTION     0.00022366.602     0  00:30           0     2.2e+06      -0.765
  113000DN             JUNCTION    40.28832519.037     6  11:43    1.21e+04    3.83e+06      -0.265
  113700DN             JUNCTION     0.00042633.055     0  00:09           0    3.94e+06      -0.125
  116200DN             JUNCTION     0.00044015.053     0  00:08           0    3.53e+06      -0.048
  117600DN             JUNCTION     0.000131970.145     0  00:01           0    3.76e+06       0.355
  118000DN             JUNCTION     0.00068181.756     0  00:01           0    3.65e+06      -0.008
  118400DN             JUNCTION     0.00054718.634     0  00:03           0    3.66e+06      -0.034
  119400DN             JUNCTION     0.00038620.219     0  00:05           0    3.68e+06      -0.023
  120000DN             JUNCTION     0.00034174.108     0  00:06           0    3.69e+06      -0.016
  120200DN             JUNCTION     0.00048318.065     0  00:08           0     3.7e+06      -0.013
  121100DN             JUNCTION     0.00031975.334     0  00:10           0    3.72e+06      -0.029
  121800DN             JUNCTION    43.56523790.251     0  00:10    1.13e+04    3.74e+06      -0.023
  122500DN             JUNCTION     0.00021872.708     0  00:11           0    3.75e+06      -0.009
  123000DN             JUNCTION     0.00022190.550     0  00:12           0    3.76e+06      -0.015
  123700DN             JUNCTION     0.00021442.675     0  00:13           0    3.77e+06      -0.014
  124200DN             JUNCTION     0.00023297.806     0  00:14           0    3.77e+06      -0.011
  124700DN             JUNCTION     0.00023264.970     0  00:14           0    3.78e+06      -0.011
  125300DN             JUNCTION     0.00022289.101     0  00:15           0    3.79e+06      -0.003
  126100DN             JUNCTION     0.00020492.409     0  00:17           0    3.81e+06      -0.017
  126900DN             JUNCTION    75.36219737.774     0  00:18    2.09e+04    3.84e+06      -0.019
  127200DN             JUNCTION     0.00018837.732     0  00:19           0    3.84e+06      -0.020
  128100DN             JUNCTION     0.00019521.370     0  00:20           0    3.84e+06      -0.018
  128800DN             JUNCTION     0.00018910.200     0  00:21           0    3.87e+06      -0.004
  128500DN             JUNCTION     0.00019185.412     0  00:21           0    3.85e+06      -0.006
  125700DN             JUNCTION     0.00021460.196     0  00:16           0     3.8e+06      -0.015
  129100DN             JUNCTION     0.00020086.596     0  00:22           0    3.89e+06      -0.017
  129700DN             JUNCTION     0.00020037.351     0  00:23           0    3.91e+06      -0.011
  130000DN             JUNCTION     0.00018477.316     0  00:22           0    3.91e+06      -0.013
  130800DN             JUNCTION     0.00016976.995     0  00:24           0    3.91e+06      -0.020
  131200DN             JUNCTION    89.87415934.404     0  00:26    2.56e+04    3.92e+06      -0.007
  131600DN             JUNCTION     0.00016155.071     0  00:26           0    3.93e+06      -0.010
  132100DN             JUNCTION     0.00016958.075     0  00:28           0    3.95e+06      -0.013
  133000DN             JUNCTION     0.00017392.640     0  00:28           0    3.96e+06      -0.014
  133300DN             JUNCTION     0.00017416.783     0  00:30           0    3.95e+06      -0.011
  133900DN             JUNCTION     0.00019012.559     0  00:30           0    3.95e+06      -0.010
  134600DN             JUNCTION     0.00018130.409     0  00:31           0    3.97e+06      -0.023
  135200DN             JUNCTION     0.00017608.640     0  00:31           0    4.01e+06      -0.011
  135500DN             JUNCTION     0.00017000.129     0  00:33           0    4.02e+06      -0.012
  135900DN             JUNCTION     0.00017281.505     0  00:33           0    4.03e+06      -0.014
  136300DN             JUNCTION   102.25918059.805     0  00:34    2.83e+04    4.06e+06      -0.008
  136800DN             JUNCTION     0.00017972.432     0  00:34           0    4.04e+06      -0.011
  137200DN             JUNCTION     0.00017019.988     0  00:35           0    4.05e+06      -0.010
  137600DN             JUNCTION     0.00016424.118     0  00:36           0    4.08e+06      -0.017
  138100DN             JUNCTION     0.00016023.639     0  00:37           0    4.11e+06      -0.012
  138400DN             JUNCTION     0.00015744.926     0  00:38           0    4.13e+06      -0.034
  139700DN             JUNCTION     0.00016431.974     6  13:00           0    4.18e+06      -0.028
  140800DN             JUNCTION     0.00014495.141     6  13:00           0    4.23e+06      -0.033
  141100DN             JUNCTION   314.23613512.664     6  08:16    9.61e+04    4.28e+06      -0.081
  143500DN             JUNCTION     0.00013885.563     6  07:23           0     4.3e+06      -0.149
  145100DN             JUNCTION   585.40415050.384     6  07:19    1.85e+05    4.52e+06      -0.129
  147900DN             JUNCTION     0.00016113.516     6  14:16           0    4.68e+06      -0.252
  153800DN             JUNCTION   327.10517888.728     6  14:06    1.01e+05    5.13e+06      -0.228
  3000SG               JUNCTION     0.000  103.395     0  04:13           0    5.62e+04       0.024
  9000SG               JUNCTION   522.843  522.843     5  03:00    1.65e+05    1.66e+05       0.033
  14000SG              JUNCTION     0.000  159.226     0  21:55           0    2.11e+04       0.215
  19000SG              JUNCTION     0.000  132.709     0  12:48           0    2.13e+04       0.172
  24000SG              JUNCTION   864.639  872.810     5  03:00     2.7e+05    2.91e+05       0.017
  29000SG              JUNCTION     0.000  488.747     0  22:47           0    1.92e+05      -0.025
  37000SG              JUNCTION     0.000  439.942     0  23:13           0    1.92e+05      -0.614
  45000SG              JUNCTION     0.000  407.900     6  12:38           0    1.93e+05      -0.544
  53000SG              JUNCTION   564.505  894.188     5  00:00    1.78e+05    3.72e+05      -0.343
  61000SG              JUNCTION     0.000  887.896     5  00:08           0    3.73e+05      -0.465
  69000SG              JUNCTION    57.673  972.054     4  09:05    1.76e+04    3.93e+05      -0.775
  74000SG              JUNCTION     0.000 1091.024     5  09:06           0    4.06e+05      -1.164
  80000SG              JUNCTION     0.000 1522.407     0  03:09           0    4.32e+05      -1.377
  85000sg              JUNCTION     0.000 2438.509     0  02:05           0    4.63e+05      -0.647
  90000SG              JUNCTION     0.000 2723.844     0  00:08           0    4.95e+05      -0.729
  95000SG              JUNCTION    79.495 3175.275     0  02:27    2.44e+04     5.5e+05      -1.330
  101000SG             JUNCTION     0.000 3221.484     0  02:18           0    5.84e+05      -0.520
  107000SG             JUNCTION     0.000 4106.429     0  01:24           0    6.23e+05      -0.762
  113000SG             JUNCTION    61.214 5174.313     0  01:07     1.8e+04     6.8e+05      -0.700
  119000SG             JUNCTION     0.000 5346.009     0  01:49           0     7.3e+05      -0.655
  125000SG             JUNCTION    47.211 5846.473     0  00:49    1.37e+04     8.1e+05      -0.800
  132000SG             JUNCTION     0.000 6378.280     0  00:35           0    8.91e+05      -0.719
  136900SG             JUNCTION     0.000 8952.479     0  00:25           0    9.67e+05      -0.543
  158108DN             OUTFALL      0.00019916.251     6  07:04           0    5.32e+06       0.000
  0SG                  STORAGE     24.000  128.755     0  03:47    1.45e+04    6.98e+04       0.002
  0DN                  STORAGE    800.000  800.000     0  00:00    4.84e+05    4.84e+05      -0.583
  
  
  **********************
  Node Surcharge Summary
  **********************
  
  Surcharging occurs when water rises above the top of the highest conduit.
  ---------------------------------------------------------------------
                                               Max. Height   Min. Depth
                                   Hours       Above Crown    Below Rim
  Node                 Type      Surcharged         Meters       Meters
  ---------------------------------------------------------------------
  11989DN              JUNCTION        0.01          0.000        0.000
  16096DN              JUNCTION        0.50          0.000        0.000
  21977DN              JUNCTION        0.12          0.000        0.000
  28086DN              JUNCTION        0.01          0.000        0.000
  34000DN              JUNCTION        0.51          0.000        0.000
  44069DN              JUNCTION        0.01          0.000        0.000
  49970DN              JUNCTION        0.01          0.000        0.000
  56094DN              JUNCTION        1.95          0.000        0.000
  68000DN              JUNCTION        0.01          0.000        0.000
  83000DN              JUNCTION        0.51          0.000        0.000
  87000DN              JUNCTION        0.60          0.000        0.000
  113700DN             JUNCTION        0.66          0.000        0.000
  116200DN             JUNCTION        0.12          0.000        0.000
  117600DN             JUNCTION       27.09          0.000        0.000
  118000DN             JUNCTION        0.02          0.000        0.000
  118400DN             JUNCTION        0.06          0.000        0.000
  119400DN             JUNCTION        0.02          0.000        0.000
  120000DN             JUNCTION        0.01          0.000        0.000
  123000DN             JUNCTION        0.11          0.000        0.000
  128800DN             JUNCTION        0.24          0.000        0.000
  130000DN             JUNCTION        0.23          0.000        0.000
  133900DN             JUNCTION        0.01          0.000        0.000
  135200DN             JUNCTION        0.92          0.000        0.000
  136300DN             JUNCTION        5.63          0.000        0.000
  140800DN             JUNCTION        0.02          0.000        0.000
  9000SG               JUNCTION      131.23          0.000        0.000
  19000SG              JUNCTION       42.85          0.000        0.000
  24000SG              JUNCTION      105.65          0.000        0.000
  74000SG              JUNCTION        0.73          0.000        0.000
  119000SG             JUNCTION        0.38          0.000        0.000
  
  
  *********************
  Node Flooding Summary
  *********************
  
  Flooding refers to all water that overflows a node, whether it ponds or not.
  --------------------------------------------------------------------------
                                                             Total   Maximum
                                 Maximum   Time of Max       Flood    Ponded
                        Hours       Rate    Occurrence      Volume     Depth
  Node                 Flooded       CMS   days hr:min    10^6 ltr    Meters
  --------------------------------------------------------------------------
  16096DN                 0.50  9756.342      0  00:09   10320.172     0.000
  21977DN                 0.12   853.558      0  00:06     262.244     0.000
  34000DN                 0.51  5690.675      0  00:15    7014.490     0.000
  56094DN                 1.95 15560.595      0  00:12   39002.607     0.000
  83000DN                 0.51  3524.723      0  00:33    4344.281     0.000
  87000DN                 0.60  1841.214      0  00:39    2378.270     0.000
  113700DN                0.66 28415.802      0  00:19   17075.062     0.000
  116200DN                0.12 36879.120      0  00:09    5516.057     0.000
  117600DN               27.09 85695.830      0  00:02  312355.338     0.000
  118000DN                0.02 15441.524      0  00:04     873.950     0.000
  118400DN                0.06 43396.889      0  00:04    2639.007     0.000
  119400DN                0.02  4482.038      0  00:23     179.670     0.000
  120000DN                0.01 16640.362      0  00:09     371.449     0.000
  123000DN                0.11  2934.923      0  00:29     607.104     0.000
  128800DN                0.24  2981.708      0  01:50    1062.360     0.000
  130000DN                0.23  3919.829      0  00:38    1300.493     0.000
  133900DN                0.01   261.705      0  01:44       3.949     0.000
  135200DN                0.92  7053.153      0  00:12    2873.478     0.000
  136300DN                5.62  3554.511      0  00:18   26690.426     0.000
  140800DN                0.02  4467.939      0  00:09     174.181     0.000
  9000SG                131.14   411.759      5  03:00   89797.107     0.000
  19000SG                21.20    50.591      0  01:50     228.001     0.000
  24000SG               105.54   540.348      5  05:00   98429.658     0.000
  74000SG                 0.73   845.121      0  01:02    1729.813     0.000
  119000SG                0.37  2061.001      0  00:14    2072.655     0.000
  0SG                   158.29   128.755      0  03:47   68936.436     0.000
  0DN                     0.24   800.000      0  00:00     549.580     0.000
  
  
  **********************
  Storage Volume Summary
  **********************
  
  ------------------------------------------------------------------------------------------------
                         Average    Avg   Evap  Exfil     Maximum    Max    Time of Max    Maximum
                          Volume   Pcnt   Pcnt   Pcnt      Volume   Pcnt     Occurrence    Outflow
  Storage Unit           1000 m³   Full   Loss   Loss     1000 m³   Full    days hr:min        CMS
  ------------------------------------------------------------------------------------------------
  0SG                      8.989   99.9    0.0    0.0       9.000  100.0       0  00:00     36.609
  0DN                     10.105   50.0    0.0    0.0      20.200  100.0       0  00:00   2684.799
  
  
  ***********************
  Outfall Loading Summary
  ***********************
  
  -----------------------------------------------------------
                         Flow       Avg       Max       Total
                         Freq      Flow      Flow      Volume
  Outfall Node           Pcnt       CMS       CMS    10^6 ltr
  -----------------------------------------------------------
  158108DN             100.00  8849.559 19916.251 5315518.518
  -----------------------------------------------------------
  System               100.00  8849.559 19916.251 5315518.518
  
  
  ********************
  Link Flow Summary
  ********************
  
  -----------------------------------------------------------------------------
                                 Maximum  Time of Max   Maximum    Max/    Max/
                                  |Flow|   Occurrence   |Veloc|    Full    Full
  Link                 Type          CMS  days hr:min     m/sec    Flow   Depth
  -----------------------------------------------------------------------------
  C1                   CHANNEL  2684.799     0  00:23      1.63   22.74    0.99
  C2                   CHANNEL  4720.794     0  00:25      3.32   40.70    0.99
  C3                   CHANNEL  5892.040     0  00:18      4.42    0.96    1.00
  C4                   CHANNEL  9811.737     0  00:09      3.95    0.77    1.00
  C5                   CHANNEL  5457.943     0  00:40      2.31   40.90    1.00
  C6                   CHANNEL  4454.490     0  00:27      1.60    0.29    1.00
  C7                   CHANNEL  5082.705     0  00:56      1.99    0.49    1.00
  C8                   CHANNEL  5269.232     0  00:42      1.97   34.96    1.00
  C9                   CHANNEL  5009.222     0  00:48      3.94    0.48    0.90
  C10                  CHANNEL  4457.462     0  00:50      3.42    0.38    0.97
  C11                  CHANNEL  4283.796     0  01:08      3.37   46.78    1.00
  C12                  CHANNEL 15059.203     0  00:11      2.79    1.05    1.00
  C13                  CHANNEL  3753.016     0  03:02      1.34    0.45    1.00
  C14                  CHANNEL  3906.907     0  03:02      1.49   17.76    0.84
  C15                  CHANNEL  4053.168     0  02:56      1.70    0.10    0.81
  C16                  CHANNEL  4020.984     0  02:52      1.27    0.14    0.88
  C17                  CHANNEL  4363.723     0  02:42      0.90    0.17    1.00
  C18                  CHANNEL  4305.349     0  01:54      0.78    0.29    0.98
  C19                  CHANNEL  4758.493     0  02:03      0.90    0.09    0.87
  C20                  CHANNEL  4967.551     0  02:12      0.84    0.18    1.00
  C21                  CHANNEL  5441.586     0  02:12      0.96   14.32    1.00
  C22                  CHANNEL  4957.459     0  02:19      1.86    0.26    0.91
  C23                  CHANNEL  4799.238     0  02:31      1.64   22.87    0.98
  C24                  CHANNEL  7610.249     0  01:05      0.87    0.36    1.00
  C25                  CHANNEL 18564.422     0  00:31      2.09    0.12    1.00
  C26                  CHANNEL 22366.602     0  00:30      1.72    0.31    0.92
  C27                  CHANNEL 22227.714     0  00:16      1.52    0.23    0.93
  C28                  CHANNEL 42633.055     0  00:09      4.10    0.13    0.85
  C29                  CHANNEL 33075.617     0  00:09      3.24    0.28    1.00
  C30                  CHANNEL 60530.711     0  00:01      6.26    0.35    1.00
  C31                  CHANNEL 76722.496     0  00:00     11.52    0.90    1.00
  C32                  CHANNEL 68181.756     0  00:01      7.63    0.35    1.00
  C33                  CHANNEL 53433.992     0  00:03      5.75    0.26    1.00
  C34                  CHANNEL 38620.219     0  00:05      4.52    0.35    1.00
  C35                  CHANNEL 34174.108     0  00:06      4.96    0.33    1.00
  C36                  CHANNEL 32312.159     0  00:08      3.22    0.29    0.93
  C37                  CHANNEL 27870.163     0  00:09      2.82    0.27    0.95
  C38                  CHANNEL 23789.580     0  00:10      2.45    0.17    0.95
  C39                  CHANNEL 21872.708     0  00:11      2.10    0.15    0.97
  C40                  CHANNEL 22190.550     0  00:12      1.78    0.13    1.00
  C41                  CHANNEL 21442.675     0  00:13      2.05    0.12    0.96
  C42                  CHANNEL 23297.806     0  00:14      2.27    0.16    0.97
  C43                  CHANNEL 23264.970     0  00:14      2.01    0.32    1.00
  C44                  CHANNEL 22289.101     0  00:15      1.91    8.87    1.00
  C45                  CHANNEL 21460.196     0  00:16      1.69    0.10    1.00
  C46                  CHANNEL 20492.409     0  00:17      1.65    0.11    0.99
  C47                  CHANNEL 19736.392     0  00:18      1.74    0.15    0.99
  C48                  CHANNEL 18837.732     0  00:19      2.18    0.09    0.83
  C49                  CHANNEL 19521.370     0  00:20      1.58    0.18    1.00
  C50                  CHANNEL 19185.412     0  00:21      1.48    0.14    1.00
  C51                  CHANNEL 18910.200     0  00:21      1.39    0.12    0.99
  C52                  CHANNEL 20086.596     0  00:22      1.47    0.52    0.99
  C53                  CHANNEL 20037.351     0  00:23      1.52    0.07    0.93
  C54                  CHANNEL 18477.316     0  00:22      1.16    0.15    1.00
  C55                  CHANNEL 16976.995     0  00:24      1.15    0.21    1.00
  C56                  CHANNEL 15932.381     0  00:26      1.20    0.07    0.95
  C57                  CHANNEL 16155.071     0  00:26      1.19    0.07    0.94
  C58                  CHANNEL 16958.075     0  00:28      1.17    0.32    1.00
  C59                  CHANNEL 17392.640     0  00:28      1.22    0.08    0.97
  C60                  CHANNEL 17416.783     0  00:30      1.34    0.13    0.97
  C61                  CHANNEL 19012.559     0  00:30      1.34    0.10    0.99
  C62                  CHANNEL 18130.409     0  00:31      1.27    0.10    1.00
  C63                  CHANNEL 17608.640     0  00:31      1.16    0.09    0.99
  C64                  CHANNEL 17000.129     0  00:33      1.16    0.26    0.98
  C65                  CHANNEL 17281.505     0  00:33      1.08    0.13    1.00
  C66                  CHANNEL 18056.237     0  00:34      1.10    0.12    0.99
  C68                  CHANNEL 17019.988     0  00:35      1.08    0.39    0.97
  C69                  CHANNEL 17972.432     0  00:34      1.12    0.14    1.00
  C70                  CHANNEL 16424.118     0  00:36      1.07    0.23    1.00
  C71                  CHANNEL 16023.639     0  00:37      1.12    0.10    0.94
  C72                  CHANNEL 15744.926     0  00:38      0.92    0.20    1.00
  C73                  CHANNEL 16431.974     6  13:00      0.87    0.17    1.00
  C74                  CHANNEL 14495.141     6  13:00      0.72    0.08    0.98
  C75                  CHANNEL 13885.563     6  07:23      0.94    0.17    0.91
  C76                  CHANNEL 14661.532     6  07:20      0.90    0.08    0.88
  C77                  CHANNEL 15875.944     6  07:18      0.90    0.13    0.91
  C78                  CHANNEL 17602.982     6  07:18      0.76    0.16    0.99
  C79                  CHANNEL 19916.251     6  07:04      1.03    0.70    0.99
  C80                  CHANNEL   104.755     0  03:47      0.31   10.67    0.99
  C81                  CHANNEL   103.395     0  04:13      0.27    0.23    1.00
  C82                  CHANNEL   159.226     0  21:55      0.43   21.19    1.00
  C83                  CHANNEL   132.709     0  12:48      0.38    0.34    0.97
  C84                  CHANNEL   139.993     0  12:55      0.36    0.43    1.00
  C85                  CHANNEL   488.747     0  22:47      0.71    0.75    1.00
  C86                  CHANNEL   439.942     0  23:13      0.93    0.49    0.89
  C87                  CHANNEL   407.900     6  12:38      0.76    0.40    0.96
  C88                  CHANNEL   468.282     6  12:12      0.71    0.43    0.97
  C89                  CHANNEL   887.896     5  00:08      1.01    0.88    0.99
  C90                  CHANNEL   940.981     5  09:30      0.98    0.32    0.87
  C91                  CHANNEL  1091.024     5  09:06      0.88    0.42    0.95
  C92                  CHANNEL  1522.407     0  03:09      0.73    0.64    1.00
  C93                  CHANNEL  2438.509     0  02:05      1.18    0.45    0.93
  C94                  CHANNEL  2410.138     0  01:52      1.12    0.30    0.94
  C95                  CHANNEL  3160.718     0  02:27      1.19    0.77    0.98
  C96                  CHANNEL  3221.484     0  02:18      1.09    0.91    1.00
  C97                  CHANNEL  4106.429     0  01:24      1.70    0.12    0.90
  C98                  CHANNEL  5170.411     0  01:07      1.58    0.15    1.00
  C99                  CHANNEL  5346.009     0  01:49      1.29    0.45    1.00
  C100                 CHANNEL  5844.591     0  00:49      1.44    0.15    1.00
  C101                 CHANNEL  6378.280     0  00:35      1.17    0.20    0.95
  C102                 CHANNEL  8952.479     0  00:25      1.59   16.26    0.99
  C67                  CHANNEL  9468.749     0  00:15      1.70    0.46    0.97
  
  
  ***************************
  Flow Classification Summary
  ***************************
  
  -------------------------------------------------------------------------------------
                      Adjusted    ---------- Fraction of Time in Flow Class ---------- 
                       /Actual         Up    Down  Sub   Sup   Up    Down  Norm  Inlet 
  Conduit               Length    Dry  Dry   Dry   Crit  Crit  Crit  Crit  Ltd   Ctrl  
  -------------------------------------------------------------------------------------
  C1                      1.00   0.00  0.00  0.00  1.00  0.00  0.00  0.00  0.00  0.00
  C2                      1.00   0.00  0.00  0.00  1.00  0.00  0.00  0.00  0.00  0.00
  C3                      1.00   0.00  0.00  0.00  1.00  0.00  0.00  0.00  0.00  0.00
  C4                      1.00   0.00  0.00  0.00  1.00  0.00  0.00  0.00  0.00  0.00
  C5                      1.00   0.00  0.00  0.00  1.00  0.00  0.00  0.00  0.00  0.00
  C6                      1.00   0.00  0.00  0.00  1.00  0.00  0.00  0.00  0.00  0.00
  C7                      1.00   0.00  0.00  0.00  1.00  0.00  0.00  0.00  0.00  0.00
  C8                      1.00   0.00  0.00  0.00  1.00  0.00  0.00  0.00  0.00  0.00
  C9                      1.00   0.00  0.00  0.00  1.00  0.00  0.00  0.00  0.00  0.00
  C10                     1.00   0.00  0.00  0.00  1.00  0.00  0.00  0.00  0.00  0.00
  C11                     1.00   0.00  0.00  0.00  1.00  0.00  0.00  0.00  0.00  0.00
  C12                     1.00   0.00  0.00  0.00  1.00  0.00  0.00  0.00  0.00  0.00
  C13                     1.00   0.00  0.00  0.00  1.00  0.00  0.00  0.00  0.00  0.00
  C14                     1.00   0.00  0.00  0.00  1.00  0.00  0.00  0.00  0.00  0.00
  C15                     1.00   0.00  0.00  0.00  1.00  0.00  0.00  0.00  0.00  0.00
  C16                     1.00   0.00  0.00  0.00  1.00  0.00  0.00  0.00  0.00  0.00
  C17                     1.00   0.00  0.00  0.00  1.00  0.00  0.00  0.00  0.00  0.00
  C18                     1.00   0.00  0.00  0.00  1.00  0.00  0.00  0.00  0.00  0.00
  C19                     1.00   0.00  0.00  0.00  1.00  0.00  0.00  0.00  0.00  0.00
  C20                     1.00   0.00  0.00  0.00  1.00  0.00  0.00  0.00  0.00  0.00
  C21                     1.00   0.00  0.00  0.00  1.00  0.00  0.00  0.00  0.00  0.00
  C22                     1.00   0.00  0.00  0.00  1.00  0.00  0.00  0.00  0.00  0.00
  C23                     1.00   0.00  0.00  0.00  1.00  0.00  0.00  0.00  0.00  0.00
  C24                     1.00   0.00  0.00  0.00  1.00  0.00  0.00  0.00  0.00  0.00
  C25                     1.00   0.00  0.00  0.00  1.00  0.00  0.00  0.00  0.00  0.00
  C26                     1.00   0.00  0.00  0.00  1.00  0.00  0.00  0.00  0.00  0.00
  C27                     1.00   0.00  0.00  0.00  1.00  0.00  0.00  0.00  0.00  0.00
  C28                     1.00   0.00  0.00  0.00  1.00  0.00  0.00  0.00  0.00  0.00
  C29                     1.00   0.00  0.00  0.00  1.00  0.00  0.00  0.00  0.00  0.00
  C30                     1.00   0.00  0.00  0.00  1.00  0.00  0.00  0.00  0.00  0.00
  C31                     1.00   0.00  0.00  0.00  1.00  0.00  0.00  0.00  0.00  0.00
  C32                     1.00   0.00  0.00  0.00  1.00  0.00  0.00  0.00  0.00  0.00
  C33                     1.00   0.00  0.00  0.00  1.00  0.00  0.00  0.00  0.00  0.00
  C34                     1.00   0.00  0.00  0.00  1.00  0.00  0.00  0.00  0.00  0.00
  C35                     1.00   0.00  0.00  0.00  1.00  0.00  0.00  0.00  0.00  0.00
  C36                     1.00   0.00  0.00  0.00  1.00  0.00  0.00  0.00  0.00  0.00
  C37                     1.00   0.00  0.00  0.00  1.00  0.00  0.00  0.00  0.00  0.00
  C38                     1.00   0.00  0.00  0.00  1.00  0.00  0.00  0.00  0.00  0.00
  C39                     1.00   0.00  0.00  0.00  1.00  0.00  0.00  0.00  0.00  0.00
  C40                     1.00   0.00  0.00  0.00  1.00  0.00  0.00  0.00  0.00  0.00
  C41                     1.00   0.00  0.00  0.00  1.00  0.00  0.00  0.00  0.00  0.00
  C42                     1.00   0.00  0.00  0.00  1.00  0.00  0.00  0.00  0.00  0.00
  C43                     1.00   0.00  0.00  0.00  1.00  0.00  0.00  0.00  0.00  0.00
  C44                     1.00   0.00  0.00  0.00  1.00  0.00  0.00  0.00  0.01  0.00
  C45                     1.00   0.00  0.00  0.00  1.00  0.00  0.00  0.00  0.00  0.00
  C46                     1.00   0.00  0.00  0.00  1.00  0.00  0.00  0.00  0.00  0.00
  C47                     1.00   0.00  0.00  0.00  1.00  0.00  0.00  0.00  0.00  0.00
  C48                     1.00   0.00  0.00  0.00  1.00  0.00  0.00  0.00  0.00  0.00
  C49                     1.00   0.00  0.00  0.00  1.00  0.00  0.00  0.00  0.00  0.00
  C50                     1.00   0.00  0.00  0.00  1.00  0.00  0.00  0.00  0.00  0.00
  C51                     1.00   0.00  0.00  0.00  1.00  0.00  0.00  0.00  0.00  0.00
  C52                     1.00   0.00  0.00  0.00  1.00  0.00  0.00  0.00  0.00  0.00
  C53                     1.00   0.00  0.00  0.00  1.00  0.00  0.00  0.00  0.00  0.00
  C54                     1.00   0.00  0.00  0.00  1.00  0.00  0.00  0.00  0.00  0.00
  C55                     1.00   0.00  0.00  0.00  1.00  0.00  0.00  0.00  0.00  0.00
  C56                     1.00   0.00  0.00  0.00  1.00  0.00  0.00  0.00  0.00  0.00
  C57                     1.00   0.00  0.00  0.00  1.00  0.00  0.00  0.00  0.00  0.00
  C58                     1.00   0.00  0.00  0.00  1.00  0.00  0.00  0.00  0.00  0.00
  C59                     1.00   0.00  0.00  0.00  1.00  0.00  0.00  0.00  0.00  0.00
  C60                     1.00   0.00  0.00  0.00  1.00  0.00  0.00  0.00  0.00  0.00
  C61                     1.00   0.00  0.00  0.00  1.00  0.00  0.00  0.00  0.00  0.00
  C62                     1.00   0.00  0.00  0.00  1.00  0.00  0.00  0.00  0.00  0.00
  C63                     1.00   0.00  0.00  0.00  1.00  0.00  0.00  0.00  0.00  0.00
  C64                     1.00   0.00  0.00  0.00  1.00  0.00  0.00  0.00  0.00  0.00
  C65                     1.00   0.00  0.00  0.00  1.00  0.00  0.00  0.00  0.00  0.00
  C66                     1.00   0.00  0.00  0.00  1.00  0.00  0.00  0.00  0.00  0.00
  C68                     1.00   0.00  0.00  0.00  1.00  0.00  0.00  0.00  0.00  0.00
  C69                     1.00   0.00  0.00  0.00  1.00  0.00  0.00  0.00  0.00  0.00
  C70                     1.00   0.00  0.00  0.00  1.00  0.00  0.00  0.00  0.00  0.00
  C71                     1.00   0.00  0.00  0.00  1.00  0.00  0.00  0.00  0.00  0.00
  C72                     1.00   0.00  0.00  0.00  1.00  0.00  0.00  0.00  0.00  0.00
  C73                     1.00   0.00  0.00  0.00  1.00  0.00  0.00  0.00  0.00  0.00
  C74                     1.00   0.00  0.00  0.00  1.00  0.00  0.00  0.00  0.00  0.00
  C75                     1.00   0.00  0.00  0.00  1.00  0.00  0.00  0.00  0.00  0.00
  C76                     1.00   0.00  0.00  0.00  1.00  0.00  0.00  0.00  0.00  0.00
  C77                     1.00   0.00  0.00  0.00  1.00  0.00  0.00  0.00  0.00  0.00
  C78                     1.00   0.00  0.00  0.00  1.00  0.00  0.00  0.00  0.00  0.00
  C79                     1.00   0.00  0.00  0.00  1.00  0.00  0.00  0.00  0.00  0.00
  C80                     1.00   0.00  0.00  0.00  1.00  0.00  0.00  0.00  0.00  0.00
  C81                     1.00   0.00  0.00  0.00  1.00  0.00  0.00  0.00  0.00  0.00
  C82                     1.00   0.00  0.00  0.00  1.00  0.00  0.00  0.00  0.00  0.00
  C83                     1.00   0.00  0.00  0.00  1.00  0.00  0.00  0.00  0.00  0.00
  C84                     1.00   0.00  0.00  0.00  1.00  0.00  0.00  0.00  0.00  0.00
  C85                     1.00   0.00  0.00  0.00  1.00  0.00  0.00  0.00  0.00  0.00
  C86                     1.00   0.00  0.00  0.00  1.00  0.00  0.00  0.00  0.00  0.00
  C87                     1.00   0.00  0.00  0.00  1.00  0.00  0.00  0.00  0.00  0.00
  C88                     1.00   0.00  0.00  0.00  1.00  0.00  0.00  0.00  0.00  0.00
  C89                     1.00   0.00  0.00  0.00  1.00  0.00  0.00  0.00  0.00  0.00
  C90                     1.00   0.00  0.00  0.00  1.00  0.00  0.00  0.00  0.00  0.00
  C91                     1.00   0.00  0.00  0.00  1.00  0.00  0.00  0.00  0.00  0.00
  C92                     1.00   0.00  0.00  0.00  1.00  0.00  0.00  0.00  0.00  0.00
  C93                     1.00   0.00  0.00  0.00  1.00  0.00  0.00  0.00  0.00  0.00
  C94                     1.00   0.00  0.00  0.00  1.00  0.00  0.00  0.00  0.00  0.00
  C95                     1.00   0.00  0.00  0.00  1.00  0.00  0.00  0.00  0.00  0.00
  C96                     1.00   0.00  0.00  0.00  1.00  0.00  0.00  0.00  0.00  0.00
  C97                     1.00   0.00  0.00  0.00  1.00  0.00  0.00  0.00  0.00  0.00
  C98                     1.00   0.00  0.00  0.00  1.00  0.00  0.00  0.00  0.00  0.00
  C99                     1.00   0.00  0.00  0.00  1.00  0.00  0.00  0.00  0.00  0.00
  C100                    1.00   0.00  0.00  0.00  1.00  0.00  0.00  0.00  0.00  0.00
  C101                    1.00   0.00  0.00  0.00  1.00  0.00  0.00  0.00  0.00  0.00
  C102                    1.00   0.00  0.00  0.00  1.00  0.00  0.00  0.00  0.01  0.00
  C67                     1.00   0.00  0.00  0.00  1.00  0.00  0.00  0.00  0.00  0.00
  
  
  *************************
  Conduit Surcharge Summary
  *************************
  
  ----------------------------------------------------------------------------
                                                           Hours        Hours 
                         --------- Hours Full --------   Above Full   Capacity
  Conduit                Both Ends  Upstream  Dnstream   Normal Flow   Limited
  ----------------------------------------------------------------------------
  C1                          0.01      0.01      0.01    167.85         0.01
  C2                          0.01      0.01      0.01    167.93         0.01
  C3                          0.01      0.09      0.01      0.01         0.01
  C4                          0.12      0.14      0.50      0.01         0.12
  C5                          0.12      0.50      0.12    167.73         0.01
  C6                          0.01      0.01      1.19      0.01         0.01
  C7                          0.07      0.10      0.51      0.01         0.07
  C8                          0.27      0.51      0.27    154.20         0.01
  C10                         0.01      0.01      0.01      0.01         0.01
  C11                         0.01      0.01      0.01    152.45         0.01
  C12                         1.95      1.95     65.20      0.10         0.01
  C13                         0.13      0.13      3.54      0.01         0.01
  C14                         0.01      0.01      0.01    154.10         0.01
  C17                         0.34      0.34    168.00      0.01         0.01
  C18                         0.01      0.01      0.30      0.01         0.01
  C19                         0.01      0.01      0.51      0.01         0.01
  C20                         0.60      0.60     50.17      0.01         0.01
  C21                         0.31      0.60      0.43    154.14         0.01
  C23                         0.01      0.01      0.01    160.53         0.01
  C24                         0.01      0.01    168.00      0.01         0.01
  C25                         0.01      0.01     98.00      0.01         0.01
  C27                         0.01      0.01      0.07      0.01         0.01
  C28                         0.01      0.01      0.66      0.01         0.01
  C29                         0.12      0.12    168.00      0.01         0.01
  C30                         0.12      0.12    168.00      0.01         0.01
  C31                         0.01      0.02     27.09      0.01         0.01
  C32                         0.06      0.06    152.98      0.01         0.01
  C33                         0.02      0.02    168.00      0.01         0.01
  C34                         0.43      0.43    158.97      0.01         0.02
  C35                         0.01      0.01      0.14      0.01         0.01
  C38                         0.01      0.01      0.11      0.01         0.01
  C39                         0.01      0.01      0.11      0.01         0.01
  C40                         0.52      0.52    168.00      0.01         0.01
  C41                         0.01      0.01      0.11      0.01         0.01
  C42                         0.01      0.01      0.12      0.01         0.01
  C43                         0.01      0.01      0.18      0.01         0.01
  C44                         0.01      0.01      0.01    143.40         0.01
  C45                         0.01      0.01    168.00      0.01         0.01
  C46                         0.01      0.01    168.00      0.01         0.01
  C47                         0.01      0.01     30.92      0.01         0.01
  C49                         0.01      0.01     56.14      0.01         0.01
  C50                         0.24      0.24     98.58      0.01         0.01
  C51                         0.01      0.01     52.59      0.01         0.01
  C53                         0.01      0.01      0.23      0.01         0.01
  C54                         0.01      0.01    116.25      0.01         0.01
  C55                         0.26      0.26     32.94      0.01         0.01
  C56                         0.01      0.01      0.28      0.01         0.01
  C57                         0.01      0.01      0.05      0.01         0.01
  C58                         0.01      0.01      0.10      0.01         0.01
  C60                         0.01      0.01      0.01      0.01         0.01
  C61                         0.01      0.01    167.85      0.01         0.01
  C62                         0.92      0.92    168.00      0.01         0.01
  C63                         0.01      0.01     91.16      0.01         0.01
  C65                         5.63      5.63     91.79      0.01         0.01
  C66                         0.01      0.01    110.15      0.01         0.01
  C69                         0.01      0.01     64.31      0.01         0.01
  C70                         6.10      6.10     33.31      0.01         0.01
  C72                         0.01      0.01     71.46      0.01         0.01
  C73                         0.02      0.02    102.58      0.01         0.01
  C74                         0.01      0.01     40.07      0.01         0.01
  C78                         0.01      0.01    168.00      0.01         0.01
  C79                         0.01      0.01      2.43      0.01         0.01
  C80                         0.01      0.01      0.01    166.44         0.01
  C81                       131.14    131.14    168.00      0.01         0.01
  C82                        16.00    131.14     16.14    123.77         0.01
  C83                         0.01      0.01     21.20      0.01         0.01
  C84                       105.54    105.54    158.08      0.01         0.01
  C85                         1.25      1.25    161.02      0.01         0.01
  C87                         0.01      0.01      1.02      0.01         0.01
  C88                         0.01      0.01      0.93      0.01         0.01
  C89                         0.01      0.01      0.53      0.01         0.01
  C90                         0.01      0.01      0.68      0.01         0.01
  C91                         0.01      0.01      0.73      0.01         0.01
  C92                         0.72      0.72     26.64      0.01         0.01
  C93                         0.01      0.01      0.71      0.01         0.01
  C94                         0.01      0.01      0.77      0.01         0.01
  C96                         0.16      0.31      0.46      0.01         0.07
  C98                         0.01      0.01    168.00      0.01         0.01
  C99                         0.37      0.37      0.76      0.01         0.01
  C100                        0.01      0.01    168.00      0.01         0.01
  C102                        0.01      0.01      0.01    142.89         0.01
  

  Analysis begun on:  Thu Oct  2 01:43:02 2025
  Analysis ended on:  Thu Oct  2 01:43:05 2025
  Total elapsed time: 00:00:03