
  EPA STORM WATER MANAGEMENT MODEL - VERSION 5.2 (Build 5.2.4)
  PYSWMM TOOLKIT API - VERSION v1.0 (2023-11-27)
  ------------------------------------------------------------

  WARNING 04: minimum elevation drop used for Conduit C1
  WARNING 04: minimum elevation drop used for Conduit C2
  WARNING 04: minimum elevation drop used for Conduit C5
  WARNING 04: minimum elevation drop used for Conduit C8
  WARNING 04: minimum elevation drop used for Conduit C11
  WARNING 04: minimum elevation drop used for Conduit C14
  WARNING 04: minimum elevation drop used for Conduit C21
  WARNING 04: minimum elevation drop used for Conduit C23
  WARNING 04: minimum elevation drop used for Conduit C44
  WARNING 04: minimum elevation drop used for Conduit C80
  WARNING 04: minimum elevation drop used for Conduit C82
  WARNING 04: minimum elevation drop used for Conduit C102
  WARNING 02: maximum depth increased for Node 3975DN
  WARNING 02: maximum depth increased for Node 8095DN
  WARNING 02: maximum depth increased for Node 16096DN
  WARNING 02: maximum depth increased for Node 21977DN
  WARNING 02: maximum depth increased for Node 34000DN
  WARNING 02: maximum depth increased for Node 39190DN
  WARNING 02: maximum depth increased for Node 42837DN
  WARNING 02: maximum depth increased for Node 56094DN
  WARNING 02: maximum depth increased for Node 60000DN
  WARNING 02: maximum depth increased for Node 64000DN
  WARNING 02: maximum depth increased for Node 64700DN
  WARNING 02: maximum depth increased for Node 72920DN
  WARNING 02: maximum depth increased for Node 78275DN
  WARNING 02: maximum depth increased for Node 83000DN
  WARNING 02: maximum depth increased for Node 87000DN
  WARNING 02: maximum depth increased for Node 91115DN
  WARNING 02: maximum depth increased for Node 95000DN
  WARNING 02: maximum depth increased for Node 99000DN
  WARNING 02: maximum depth increased for Node 102700DN
  WARNING 02: maximum depth increased for Node 103000
  WARNING 02: maximum depth increased for Node 108000DN
  WARNING 02: maximum depth increased for Node 113000DN
  WARNING 02: maximum depth increased for Node 113700DN
  WARNING 02: maximum depth increased for Node 116200DN
  WARNING 02: maximum depth increased for Node 117600DN
  WARNING 02: maximum depth increased for Node 118000DN
  WARNING 02: maximum depth increased for Node 118400DN
  WARNING 02: maximum depth increased for Node 119400DN
  WARNING 02: maximum depth increased for Node 120000DN
  WARNING 02: maximum depth increased for Node 120200DN
  WARNING 02: maximum depth increased for Node 121100DN
  WARNING 02: maximum depth increased for Node 121800DN
  WARNING 02: maximum depth increased for Node 122500DN
  WARNING 02: maximum depth increased for Node 123000DN
  WARNING 02: maximum depth increased for Node 123700DN
  WARNING 02: maximum depth increased for Node 124200DN
  WARNING 02: maximum depth increased for Node 124700DN
  WARNING 02: maximum depth increased for Node 125300DN
  WARNING 02: maximum depth increased for Node 126100DN
  WARNING 02: maximum depth increased for Node 126900DN
  WARNING 02: maximum depth increased for Node 127200DN
  WARNING 02: maximum depth increased for Node 128100DN
  WARNING 02: maximum depth increased for Node 128800DN
  WARNING 02: maximum depth increased for Node 128500DN
  WARNING 02: maximum depth increased for Node 125700DN
  WARNING 02: maximum depth increased for Node 129100DN
  WARNING 02: maximum depth increased for Node 129700DN
  WARNING 02: maximum depth increased for Node 130000DN
  WARNING 02: maximum depth increased for Node 130800DN
  WARNING 02: maximum depth increased for Node 131200DN
  WARNING 02: maximum depth increased for Node 131600DN
  WARNING 02: maximum depth increased for Node 132100DN
  WARNING 02: maximum depth increased for Node 133000DN
  WARNING 02: maximum depth increased for Node 133300DN
  WARNING 02: maximum depth increased for Node 133900DN
  WARNING 02: maximum depth increased for Node 134600DN
  WARNING 02: maximum depth increased for Node 135200DN
  WARNING 02: maximum depth increased for Node 135500DN
  WARNING 02: maximum depth increased for Node 135900DN
  WARNING 02: maximum depth increased for Node 136300DN
  WARNING 02: maximum depth increased for Node 136800DN
  WARNING 02: maximum depth increased for Node 137200DN
  WARNING 02: maximum depth increased for Node 137600DN
  WARNING 02: maximum depth increased for Node 138100DN
  WARNING 02: maximum depth increased for Node 138400DN
  WARNING 02: maximum depth increased for Node 139700DN
  WARNING 02: maximum depth increased for Node 140800DN
  WARNING 02: maximum depth increased for Node 141100DN
  WARNING 02: maximum depth increased for Node 143500DN
  WARNING 02: maximum depth increased for Node 145100DN
  WARNING 02: maximum depth increased for Node 147900DN
  WARNING 02: maximum depth increased for Node 153800DN
  WARNING 02: maximum depth increased for Node 3000SG
  WARNING 02: maximum depth increased for Node 9000SG
  WARNING 02: maximum depth increased for Node 14000SG
  WARNING 02: maximum depth increased for Node 19000SG
  WARNING 02: maximum depth increased for Node 24000SG
  WARNING 02: maximum depth increased for Node 29000SG
  WARNING 02: maximum depth increased for Node 37000SG
  WARNING 02: maximum depth increased for Node 45000SG
  WARNING 02: maximum depth increased for Node 53000SG
  WARNING 02: maximum depth increased for Node 61000SG
  WARNING 02: maximum depth increased for Node 69000SG
  WARNING 02: maximum depth increased for Node 74000SG
  WARNING 02: maximum depth increased for Node 80000SG
  WARNING 02: maximum depth increased for Node 85000sg
  WARNING 02: maximum depth increased for Node 90000SG
  WARNING 02: maximum depth increased for Node 95000SG
  WARNING 02: maximum depth increased for Node 101000SG
  WARNING 02: maximum depth increased for Node 107000SG
  WARNING 02: maximum depth increased for Node 113000SG
  WARNING 02: maximum depth increased for Node 119000SG
  WARNING 02: maximum depth increased for Node 125000SG
  WARNING 02: maximum depth increased for Node 132000SG
  WARNING 02: maximum depth increased for Node 136900SG
  
  ****************
  Analysis Options
  ****************
  Flow Units ............... CMS
  Process Models:
    Rainfall/Runoff ........ YES
    RDII ................... NO
    Snowmelt ............... NO
    Groundwater ............ NO
    Flow Routing ........... YES
    Ponding Allowed ........ NO
    Water Quality .......... NO
  Infiltration Method ...... GREEN_AMPT
  Flow Routing Method ...... DYNWAVE
  Surcharge Method ......... EXTRAN
  Starting Date ............ 09/29/2025 00:00:00
  Ending Date .............. 10/05/2025 00:00:00
  Antecedent Dry Days ...... 0.0
  Report Time Step ......... 01:00:00
  Wet Time Step ............ 00:15:00
  Dry Time Step ............ 01:00:00
  Routing Time Step ........ 20.00 sec
  Variable Time Step ....... YES
  Maximum Trials ........... 8
  Number of Threads ........ 1
  Head Tolerance ........... 0.001500 m
  
  
  **************************        Volume         Depth
  Runoff Quantity Continuity     hectare-m            mm
  **************************     ---------       -------
  Total Precipitation ......         0.000         0.000
  Evaporation Loss .........         0.000         0.000
  Infiltration Loss ........         0.000         0.000
  Surface Runoff ...........         0.000         0.000
  Final Storage ............         0.000         0.000
  Continuity Error (%) .....         0.000
  
  
  **************************        Volume        Volume
  Flow Routing Continuity        hectare-m      10^6 ltr
  **************************     ---------     ---------
  Dry Weather Inflow .......         0.000         0.000
  Wet Weather Inflow .......         0.000         0.000
  Groundwater Inflow .......         0.000         0.000
  RDII Inflow ..............         0.000         0.000
  External Inflow ..........      7158.532     71586.071
  External Outflow .........     14942.299    149424.549
  Flooding Loss ............     20241.950    202421.612
  Evaporation Loss .........         0.000         0.000
  Exfiltration Loss ........         0.000         0.000
  Initial Stored Volume ....    190636.799   1906387.870
  Final Stored Volume ......    169343.930   1693456.956
  Continuity Error (%) .....        -3.404
  
  
  *************************
  Highest Continuity Errors
  *************************
  Node 3975DN (-149.72%)
  Node 8095DN (-57.82%)
  Node 3000SG (-49.92%)
  Node 11989DN (-36.75%)
  Node 21977DN (-31.53%)
  
  
  ***************************
  Time-Step Critical Elements
  ***************************
  Link C35 (8.11%)
  Link C59 (1.84%)
  
  
  ********************************
  Highest Flow Instability Indexes
  ********************************
  Link C44 (12)
  Link C74 (11)
  Link C62 (11)
  Link C37 (11)
  Link C32 (11)
  
  
  *********************************
  Most Frequent Nonconverging Nodes
  *********************************
  Node 158108DN (0.22%)
  Node 125700DN (0.14%)
  Node 125300DN (0.14%)
  Node 118000DN (0.05%)
  Node 118400DN (0.03%)
  
  
  *************************
  Routing Time Step Summary
  *************************
  Minimum Time Step           :    11.82 sec
  Average Time Step           :    19.54 sec
  Maximum Time Step           :    20.00 sec
  % of Time in Steady State   :     0.00
  Average Iterations per Step :     2.05
  % of Steps Not Converging   :     0.22
  Time Step Frequencies       :
     20.000 -  9.564 sec      :   100.00 %
      9.564 -  4.573 sec      :     0.00 %
      4.573 -  2.187 sec      :     0.00 %
      2.187 -  1.046 sec      :     0.00 %
      1.046 -  0.500 sec      :     0.00 %
  
  
  ***************************
  Subcatchment Runoff Summary
  ***************************
  
  ------------------------------------------------------------------------------------------------------------------------------
                            Total      Total      Total      Total     Imperv       Perv      Total       Total     Peak  Runoff
                           Precip      Runon       Evap      Infil     Runoff     Runoff     Runoff      Runoff   Runoff   Coeff
  Subcatchment                 mm         mm         mm         mm         mm         mm         mm    10^6 ltr      CMS
  ------------------------------------------------------------------------------------------------------------------------------
  S1                         0.00       0.00       0.00       0.00       0.00       0.00       0.00        0.00     0.00   0.000
  S2                         0.00       0.00       0.00       0.00       0.00       0.00       0.00        0.00     0.00   0.000
  S3                         0.00       0.00       0.00       0.00       0.00       0.00       0.00        0.00     0.00   0.000
  S4                         0.00       0.00       0.00       0.00       0.00       0.00       0.00        0.00     0.00   0.000
  S5                         0.00       0.00       0.00       0.00       0.00       0.00       0.00        0.00     0.00   0.000
  S6                         0.00       0.00       0.00       0.00       0.00       0.00       0.00        0.00     0.00   0.000
  S7                         0.00       0.00       0.00       0.00       0.00       0.00       0.00        0.00     0.00   0.000
  S8                         0.00       0.00       0.00       0.00       0.00       0.00       0.00        0.00     0.00   0.000
  S9                         0.00       0.00       0.00       0.00       0.00       0.00       0.00        0.00     0.00   0.000
  S10                        0.00       0.00       0.00       0.00       0.00       0.00       0.00        0.00     0.00   0.000
  S11                        0.00       0.00       0.00       0.00       0.00       0.00       0.00        0.00     0.00   0.000
  S12                        0.00       0.00       0.00       0.00       0.00       0.00       0.00        0.00     0.00   0.000
  S13                        0.00       0.00       0.00       0.00       0.00       0.00       0.00        0.00     0.00   0.000
  S14                        0.00       0.00       0.00       0.00       0.00       0.00       0.00        0.00     0.00   0.000
  S15                        0.00       0.00       0.00       0.00       0.00       0.00       0.00        0.00     0.00   0.000
  S16                        0.00       0.00       0.00       0.00       0.00       0.00       0.00        0.00     0.00   0.000
  S17                        0.00       0.00       0.00       0.00       0.00       0.00       0.00        0.00     0.00   0.000
  S18                        0.00       0.00       0.00       0.00       0.00       0.00       0.00        0.00     0.00   0.000
  S19                        0.00       0.00       0.00       0.00       0.00       0.00       0.00        0.00     0.00   0.000
  S20                        0.00       0.00       0.00       0.00       0.00       0.00       0.00        0.00     0.00   0.000
  S21                        0.00       0.00       0.00       0.00       0.00       0.00       0.00        0.00     0.00   0.000
  S22                        0.00       0.00       0.00       0.00       0.00       0.00       0.00        0.00     0.00   0.000
  
  
  ******************
  Node Depth Summary
  ******************
  
  ---------------------------------------------------------------------------------
                                 Average  Maximum  Maximum  Time of Max    Reported
                                   Depth    Depth      HGL   Occurrence   Max Depth
  Node                 Type       Meters   Meters   Meters  days hr:min      Meters
  ---------------------------------------------------------------------------------
  3975DN               JUNCTION     7.54    20.20    13.35     0  00:00       12.52
  11989DN              JUNCTION     8.36    19.73    12.03     0  00:00       13.59
  8095DN               JUNCTION     7.53    20.20    13.35     0  00:00       12.39
  16096DN              JUNCTION    10.28    17.02     7.40     0  00:01       15.37
  21977DN              JUNCTION    10.27    17.02     7.40     0  00:04       15.19
  28086DN              JUNCTION     7.44    14.80     8.01     0  00:00       12.05
  34000DN              JUNCTION     9.09    14.15     5.70     0  00:02       13.47
  39190DN              JUNCTION     9.08    14.58     6.13     0  00:12       13.11
  42837DN              JUNCTION    11.54    17.54     6.62     0  00:00       15.63
  44069DN              JUNCTION    12.59    18.60     6.62     0  00:00       16.58
  49970DN              JUNCTION    12.56    18.60     6.62     0  00:00       14.85
  56094DN              JUNCTION    10.98    12.61     2.20     0  00:03       12.61
  60000DN              JUNCTION    10.02    12.09     2.64     0  00:18       11.15
  64000DN              JUNCTION    10.01    12.43     2.98     0  00:09       11.41
  64700DN              JUNCTION    11.76    13.98     2.78     0  00:11       13.32
  68000DN              JUNCTION    14.81    17.64     3.39     0  00:00       16.26
  72920DN              JUNCTION    10.80    12.75     2.51     0  00:13       11.98
  78275DN              JUNCTION    11.70    13.61     2.47     0  00:25       13.31
  83000DN              JUNCTION    16.68    18.33     2.20     0  00:19       18.14
  87000DN              JUNCTION    15.13    16.78     2.20     0  00:14       16.61
  91115DN              JUNCTION    15.13    16.94     2.36     0  00:33       16.70
  95000DN              JUNCTION    17.65    19.77     2.66     0  00:00       18.76
  99000DN              JUNCTION    17.65    19.77     2.66     0  00:00       18.51
  102700DN             JUNCTION    14.01    15.49     2.01     0  00:09       14.17
  103000               JUNCTION    11.94    13.41     2.00     0  00:00       12.09
  108000DN             JUNCTION    14.14    15.61     2.00     0  00:00       14.31
  113000DN             JUNCTION    17.27    18.27     1.52     0  00:03       17.75
  113700DN             JUNCTION    24.57    25.64     1.60     0  00:19       25.64
  116200DN             JUNCTION    11.21    11.89     1.20     0  00:09       11.52
  117600DN             JUNCTION    27.72    27.88     0.68     0  00:02       27.88
  118000DN             JUNCTION    27.38    27.88     1.02     0  00:04       27.56
  118400DN             JUNCTION    25.62    26.15     1.05     0  00:04       25.85
  119400DN             JUNCTION    14.76    15.44     1.20     0  00:23       15.11
  120000DN             JUNCTION    13.02    14.08     1.58     0  00:09       13.40
  120200DN             JUNCTION    13.60    14.87     1.79     0  00:09       13.98
  121100DN             JUNCTION    15.08    15.76     1.20     0  00:00       15.42
  121800DN             JUNCTION    16.28    16.93     1.17     0  00:13       16.56
  122500DN             JUNCTION    18.52    19.18     1.18     0  00:30       18.82
  123000DN             JUNCTION    20.05    20.53     1.00     0  00:02       20.38
  123700DN             JUNCTION    17.02    17.85     1.35     0  00:28       17.43
  124200DN             JUNCTION    19.02    19.70     1.20     0  00:27       19.45
  124700DN             JUNCTION    20.50    21.22     1.24     0  00:26       20.93
  125300DN             JUNCTION    20.89    21.57     1.20     0  00:31       21.28
  126100DN             JUNCTION    17.82    18.42     1.12     0  00:45       18.23
  126900DN             JUNCTION    12.97    13.65     1.20     0  00:00       13.32
  127200DN             JUNCTION    12.08    12.68     1.12     0  00:00       12.46
  128100DN             JUNCTION    17.58    18.18     1.12     0  00:35       18.01
  128800DN             JUNCTION    15.73    16.21     1.00     0  00:35       16.12
  128500DN             JUNCTION    16.77    17.34     1.09     0  00:36       17.19
  125700DN             JUNCTION    20.89    21.56     1.19     0  00:31       21.31
  129100DN             JUNCTION    14.64    15.22     1.10     0  00:00       15.02
  129700DN             JUNCTION    14.76    15.33     1.09     0  00:37       15.13
  130000DN             JUNCTION    17.49    17.97     1.00     0  00:06       17.84
  130800DN             JUNCTION    15.92    16.51     1.11     0  01:47       16.11
  131200DN             JUNCTION    15.54    16.18     1.16     0  01:47       15.73
  131600DN             JUNCTION    17.73    18.35     1.14     0  01:47       17.93
  132100DN             JUNCTION    20.38    20.94     1.08     0  02:04       20.60
  133000DN             JUNCTION    20.61    21.22     1.13     0  00:07       20.85
  133300DN             JUNCTION    21.66    22.34     1.20     0  00:00       21.94
  133900DN             JUNCTION    22.97    23.62     1.17     0  00:01       23.36
  134600DN             JUNCTION    19.82    20.60     1.30     0  00:00       20.29
  135200DN             JUNCTION    16.47    16.95     1.00     0  00:00       16.95
  135500DN             JUNCTION    15.01    15.61     1.12     0  00:11       15.47
  135900DN             JUNCTION    15.23    15.82     1.11     0  00:12       15.67
  136300DN             JUNCTION    14.26    14.74     1.00     0  00:03       14.67
  136800DN             JUNCTION    12.75    13.33     1.10     0  01:56       13.13
  137200DN             JUNCTION    11.85    12.43     1.10     0  02:02       12.24
  137600DN             JUNCTION    11.76    12.36     1.12     0  00:16       12.20
  138100DN             JUNCTION    11.39    12.04     1.17     0  00:07       11.97
  138400DN             JUNCTION    12.42    13.08     1.18     0  00:07       13.06
  139700DN             JUNCTION    11.34    12.01     1.19     0  00:11       11.76
  140800DN             JUNCTION     9.98    10.66     1.20     0  00:05       10.40
  141100DN             JUNCTION     9.03     9.67     1.16     0  00:07        9.42
  143500DN             JUNCTION    10.41    11.19     1.30     0  00:00       10.64
  145100DN             JUNCTION    13.50    14.22     1.24     0  00:04       13.62
  147900DN             JUNCTION    15.87    16.55     1.20     0  00:00       15.89
  153800DN             JUNCTION    11.57    12.17     1.12     0  00:00       11.62
  3000SG               JUNCTION     7.61     9.05     2.05     0  03:40        9.01
  9000SG               JUNCTION     6.31     7.79     2.09     0  01:20        7.74
  14000SG              JUNCTION     6.31     7.80     2.10     0  01:04        7.79
  19000SG              JUNCTION     6.91     8.40     2.10     0  00:43        8.39
  24000SG              JUNCTION     6.61     8.10     2.10     0  00:25        8.08
  29000SG              JUNCTION     6.10     7.68     2.18     0  00:26        7.53
  37000SG              JUNCTION     7.39     9.30     2.50     0  00:00        8.83
  45000SG              JUNCTION     8.58    10.22     2.22     0  00:27       10.04
  53000SG              JUNCTION     9.37    10.96     2.16     0  00:45       10.92
  61000SG              JUNCTION     9.77    11.35     2.15     0  01:04       11.35
  69000SG              JUNCTION    13.86    15.49     2.19     0  01:19       15.41
  74000SG              JUNCTION    15.56    17.10     2.10     0  00:46       17.10
  80000SG              JUNCTION    14.55    16.34     2.34     0  00:51       16.29
  85000sg              JUNCTION    17.35    19.25     2.45     0  00:32       18.88
  90000SG              JUNCTION    20.54    22.53     2.53     0  00:18       21.80
  95000SG              JUNCTION    19.84    22.50     3.20     0  00:00       21.11
  101000SG             JUNCTION    20.04    22.79     3.29     0  00:15       21.14
  107000SG             JUNCTION    25.04    27.50     3.00     0  00:00       26.28
  113000SG             JUNCTION    21.03    23.10     2.60     0  00:00       21.09
  119000SG             JUNCTION    20.73    22.30     2.10     0  00:05       21.09
  125000SG             JUNCTION    16.04    17.53     2.02     0  00:14       16.98
  132000SG             JUNCTION    17.64    19.11     2.00     0  00:00       18.42
  136900SG             JUNCTION    17.63    19.11     2.00     0  00:00       18.40
  158108DN             OUTFALL     11.79    11.79     0.52     0  00:00       11.79
  0SG                  STORAGE      7.61     9.00     2.00     0  00:00        9.00
  0DN                  STORAGE      7.54    20.20    13.35     0  00:00       12.52
  
  
  *******************
  Node Inflow Summary
  *******************
  
  -------------------------------------------------------------------------------------------------
                                  Maximum  Maximum                  Lateral       Total        Flow
                                  Lateral    Total  Time of Max      Inflow      Inflow     Balance
                                   Inflow   Inflow   Occurrence      Volume      Volume       Error
  Node                 Type           CMS      CMS  days hr:min    10^6 ltr    10^6 ltr     Percent
  -------------------------------------------------------------------------------------------------
  3975DN               JUNCTION     0.000 1791.205     0  00:23           0    4.66e+03     -59.956
  11989DN              JUNCTION     0.000 5878.320     0  00:18           0    2.06e+04     -26.876
  8095DN               JUNCTION     0.000 4301.251     0  00:23           0    1.25e+04     -36.636
  16096DN              JUNCTION     0.000 9811.736     0  00:09           0    2.94e+04     -16.811
  21977DN              JUNCTION     0.000 5245.925     0  00:39           0    2.69e+04     -23.971
  28086DN              JUNCTION     0.000 4454.492     0  00:27           0    3.71e+04     -22.513
  34000DN              JUNCTION     0.000 5691.019     0  00:15           0    5.06e+04     -11.945
  39190DN              JUNCTION     0.000 5269.263     0  00:42           0    5.28e+04      -7.385
  42837DN              JUNCTION     0.000 5009.218     0  00:48           0    5.72e+04      -2.768
  44069DN              JUNCTION     0.000 4457.491     0  00:50           0    5.86e+04      -3.877
  49970DN              JUNCTION     0.000 5850.532     0  00:40           0     6.4e+04     -19.366
  56094DN              JUNCTION     0.00015561.121     0  00:12           0    8.66e+04      -4.473
  60000DN              JUNCTION     0.000 3458.946     0  03:02           0     5.7e+04      -3.561
  64000DN              JUNCTION     0.000 3654.822     0  03:02           0    5.96e+04      -2.099
  64700DN              JUNCTION     0.000 3830.699     0  02:56           0    6.19e+04      -1.631
  68000DN              JUNCTION     0.000 3884.053     0  02:52           0    6.47e+04      -8.552
  72920DN              JUNCTION     0.000 4358.098     0  02:41           0     7.3e+04      -6.930
  78275DN              JUNCTION     0.000 4302.865     0  01:54           0    8.12e+04      -5.797
  83000DN              JUNCTION     0.000 4757.715     0  02:03           0       9e+04      -3.730
  87000DN              JUNCTION     0.000 4951.246     0  02:12           0    9.43e+04      -2.962
  91115DN              JUNCTION     0.000 5455.834     0  02:12           0    9.84e+04      -2.088
  95000DN              JUNCTION     0.000 4977.222     0  02:19           0       1e+05      -2.187
  99000DN              JUNCTION     0.000 4813.250     0  02:31           0    1.04e+05     -22.407
  102700DN             JUNCTION     0.000 7608.096     0  01:05           0     1.4e+05     -12.476
  103000               JUNCTION     0.00018561.642     0  00:31           0    1.65e+05      -3.250
  108000DN             JUNCTION     0.00022362.660     0  00:30           0    1.74e+05      -6.228
  113000DN             JUNCTION     0.00031655.599     0  00:15           0    3.77e+05      -1.417
  113700DN             JUNCTION     0.00042632.956     0  00:09           0    3.86e+05      -1.030
  116200DN             JUNCTION     0.00044015.022     0  00:08           0    2.74e+05      -0.273
  117600DN             JUNCTION     0.000131970.145     0  00:01           0    2.87e+05       5.030
  118000DN             JUNCTION     0.00068181.756     0  00:01           0    1.84e+05      -0.063
  118400DN             JUNCTION     0.00054718.632     0  00:03           0    1.89e+05      -0.415
  119400DN             JUNCTION     0.00038620.170     0  00:05           0    1.89e+05      -0.186
  120000DN             JUNCTION     0.00034173.993     0  00:06           0    1.82e+05      -0.194
  120200DN             JUNCTION     0.00048318.019     0  00:08           0    1.79e+05      -0.094
  121100DN             JUNCTION     0.00031975.238     0  00:10           0    1.83e+05      -0.350
  121800DN             JUNCTION     0.00023789.715     0  00:10           0    1.86e+05      -0.229
  122500DN             JUNCTION     0.00021872.826     0  00:11           0    1.81e+05      -0.008
  123000DN             JUNCTION     0.00022190.547     0  00:12           0    1.76e+05      -0.124
  123700DN             JUNCTION     0.00021442.552     0  00:13           0    1.77e+05      -0.126
  124200DN             JUNCTION     0.00023297.585     0  00:14           0    1.81e+05      -0.085
  124700DN             JUNCTION     0.00023264.669     0  00:14           0    1.83e+05      -0.073
  125300DN             JUNCTION     0.00022288.718     0  00:15           0     1.8e+05      -0.069
  126100DN             JUNCTION     0.00020491.627     0  00:17           0    1.74e+05      -0.159
  126900DN             JUNCTION     0.00019736.498     0  00:18           0    1.79e+05      -0.260
  127200DN             JUNCTION     0.00018837.507     0  00:19           0    1.86e+05      -0.217
  128100DN             JUNCTION     0.00019520.053     0  00:20           0    1.82e+05      -0.233
  128800DN             JUNCTION     0.00018913.271     0  00:21           0    1.75e+05      -0.023
  128500DN             JUNCTION     0.00019188.739     0  00:21           0    1.74e+05      -0.037
  125700DN             JUNCTION     0.00021459.655     0  00:16           0    1.75e+05      -0.053
  129100DN             JUNCTION     0.00020085.820     0  00:22           0    1.83e+05      -0.179
  129700DN             JUNCTION     0.00020038.459     0  00:23           0    1.93e+05      -0.032
  130000DN             JUNCTION     0.00018477.940     0  00:22           0    1.97e+05       0.016
  130800DN             JUNCTION     0.00017009.452     0  00:24           0    1.87e+05      -0.193
  131200DN             JUNCTION     0.00015985.547     0  00:25           0    1.76e+05      -0.018
  131600DN             JUNCTION     0.00016159.617     0  00:26           0    1.77e+05      -0.081
  132100DN             JUNCTION     0.00016963.366     0  00:28           0    1.85e+05      -0.083
  133000DN             JUNCTION     0.00017396.676     0  00:28           0    1.89e+05      -0.180
  133300DN             JUNCTION     0.00017403.595     0  00:30           0    1.86e+05      -0.156
  133900DN             JUNCTION     0.00018962.897     0  00:30           0    1.79e+05      -0.105
  134600DN             JUNCTION     0.00017988.333     0  00:31           0    1.77e+05      -0.347
  135200DN             JUNCTION     0.00017418.190     0  00:31           0    1.87e+05      -0.108
  135500DN             JUNCTION     0.00016657.489     0  00:33           0    1.94e+05      -0.126
  135900DN             JUNCTION     0.00016847.678     0  00:33           0    1.97e+05      -0.123
  136300DN             JUNCTION     0.00017449.436     0  00:34           0    1.95e+05      -0.019
  136800DN             JUNCTION     0.00017201.040     0  00:34           0    1.85e+05      -0.109
  137200DN             JUNCTION     0.00016074.338     0  00:35           0    1.81e+05      -0.134
  137600DN             JUNCTION     0.00015234.769     0  00:36           0    1.87e+05      -0.233
  138100DN             JUNCTION     0.00014569.505     0  00:37           0    1.97e+05      -0.102
  138400DN             JUNCTION     0.00013867.247     0  00:38           0    2.03e+05      -0.380
  139700DN             JUNCTION     0.00011284.971     0  00:50           0    2.14e+05      -0.327
  140800DN             JUNCTION     0.00010207.866     0  00:08           0    2.17e+05      -0.263
  141100DN             JUNCTION     0.00012529.270     0  00:47           0    1.96e+05      -1.197
  143500DN             JUNCTION     0.000 9629.879     0  01:46           0    1.83e+05      -2.480
  145100DN             JUNCTION     0.00012610.582     0  00:57           0    1.87e+05      -2.197
  147900DN             JUNCTION     0.00016048.159     0  01:07           0    1.91e+05      -4.339
  153800DN             JUNCTION     0.00013871.581     0  01:19           0    2.05e+05      -4.203
  3000SG               JUNCTION     0.000   56.071     0  01:35           0    1.17e+03     -33.298
  9000SG               JUNCTION     0.000   71.338     0  04:51           0    2.59e+03     -21.806
  14000SG              JUNCTION     0.000   93.979     0  05:04           0    4.13e+03     -12.296
  19000SG              JUNCTION     0.000  112.907     0  05:19           0    5.43e+03      -8.754
  24000SG              JUNCTION     0.000  162.074     0  00:37           0    7.01e+03     -10.271
  29000SG              JUNCTION     0.000  199.986     0  00:15           0    9.08e+03     -12.190
  37000SG              JUNCTION     0.000  212.689     0  05:50           0    1.16e+04     -15.640
  45000SG              JUNCTION     0.000  300.190     0  04:49           0    1.51e+04      -9.301
  53000SG              JUNCTION     0.000  407.389     0  04:30           0    1.79e+04      -7.740
  61000SG              JUNCTION     0.000  519.925     0  04:10           0    2.05e+04      -7.230
  69000SG              JUNCTION     0.000  668.465     0  03:51           0    2.33e+04      -9.696
  74000SG              JUNCTION     0.000 1020.843     0  01:00           0       3e+04     -14.240
  80000SG              JUNCTION     0.000 1509.642     0  03:09           0    3.97e+04      -8.931
  85000sg              JUNCTION     0.000 2438.879     0  02:05           0    4.82e+04      -4.537
  90000SG              JUNCTION     0.000 2723.812     0  00:08           0    5.24e+04      -5.122
  95000SG              JUNCTION     0.000 3165.873     0  02:27           0     5.2e+04     -10.901
  101000SG             JUNCTION     0.000 3215.503     0  01:34           0    5.78e+04      -3.496
  107000SG             JUNCTION     0.000 4104.963     0  01:24           0    7.07e+04      -5.110
  113000SG             JUNCTION     0.000 5169.822     0  01:07           0    8.45e+04      -4.075
  119000SG             JUNCTION     0.000 5327.194     0  01:49           0    8.21e+04      -3.854
  125000SG             JUNCTION     0.000 5842.615     0  00:49           0    7.21e+04      -5.819
  132000SG             JUNCTION     0.000 6377.303     0  00:35           0    7.35e+04      -5.891
  136900SG             JUNCTION     0.000 8951.885     0  00:25           0    7.89e+04      -4.236
  158108DN             OUTFALL      0.00016910.670     0  00:14           0    2.21e+05       0.000
  0SG                  STORAGE      0.000   74.287     0  01:42           0         493     -23.125
  0DN                  STORAGE      0.000   21.115     0  12:54           0         399     -89.574
  
  
  **********************
  Node Surcharge Summary
  **********************
  
  Surcharging occurs when water rises above the top of the highest conduit.
  ---------------------------------------------------------------------
                                               Max. Height   Min. Depth
                                   Hours       Above Crown    Below Rim
  Node                 Type      Surcharged         Meters       Meters
  ---------------------------------------------------------------------
  11989DN              JUNCTION        0.01          0.000        0.000
  16096DN              JUNCTION        0.49          0.000        0.000
  21977DN              JUNCTION        0.12          0.000        0.000
  28086DN              JUNCTION        0.01          0.000        0.000
  34000DN              JUNCTION        0.51          0.000        0.000
  44069DN              JUNCTION        0.01          0.000        0.000
  49970DN              JUNCTION        0.01          0.000        0.000
  56094DN              JUNCTION        1.91          0.000        0.000
  68000DN              JUNCTION        0.01          0.000        0.000
  83000DN              JUNCTION        0.51          0.000        0.000
  87000DN              JUNCTION        0.60          0.000        0.000
  113700DN             JUNCTION        0.54          0.000        0.000
  116200DN             JUNCTION        0.12          0.000        0.000
  117600DN             JUNCTION        4.50          0.000        0.000
  118000DN             JUNCTION        0.02          0.000        0.000
  118400DN             JUNCTION        0.06          0.000        0.000
  119400DN             JUNCTION        0.02          0.000        0.000
  120000DN             JUNCTION        0.01          0.000        0.000
  123000DN             JUNCTION        0.09          0.000        0.000
  128800DN             JUNCTION        0.10          0.000        0.000
  130000DN             JUNCTION        0.14          0.000        0.000
  135200DN             JUNCTION        0.30          0.000        0.000
  136300DN             JUNCTION        0.30          0.000        0.000
  140800DN             JUNCTION        0.02          0.000        0.000
  19000SG              JUNCTION        0.13          0.000        0.000
  24000SG              JUNCTION        0.49          0.000        0.000
  74000SG              JUNCTION        0.72          0.000        0.000
  119000SG             JUNCTION        0.38          0.000        0.000
  
  
  *********************
  Node Flooding Summary
  *********************
  
  Flooding refers to all water that overflows a node, whether it ponds or not.
  --------------------------------------------------------------------------
                                                             Total   Maximum
                                 Maximum   Time of Max       Flood    Ponded
                        Hours       Rate    Occurrence      Volume     Depth
  Node                 Flooded       CMS   days hr:min    10^6 ltr    Meters
  --------------------------------------------------------------------------
  16096DN                 0.49  9756.180      0  00:09   10279.548     0.000
  21977DN                 0.12   853.558      0  00:06     262.244     0.000
  34000DN                 0.51  5690.644      0  00:15    7014.347     0.000
  56094DN                 1.91 15560.519      0  00:12   38071.945     0.000
  83000DN                 0.51  3524.474      0  00:33    4343.758     0.000
  87000DN                 0.60  1840.907      0  00:39    2377.664     0.000
  113700DN                0.54 28233.215      0  00:19   15540.030     0.000
  116200DN                0.12 36879.043      0  00:09    5513.249     0.000
  117600DN                4.50 85695.830      0  00:02  104683.880     0.000
  118000DN                0.02 15441.525      0  00:04     873.950     0.000
  118400DN                0.06 43396.884      0  00:04    2606.362     0.000
  119400DN                0.02  4499.052      0  00:23     180.556     0.000
  120000DN                0.01 16640.263      0  00:09     371.437     0.000
  123000DN                0.09  2931.175      0  00:29     537.775     0.000
  128800DN                0.10  2525.586      0  00:37     440.312     0.000
  130000DN                0.14  3634.472      0  00:38     787.012     0.000
  135200DN                0.30  7051.929      0  00:12    2150.703     0.000
  136300DN                0.30  3552.099      0  00:18    1923.034     0.000
  140800DN                0.02  4467.516      0  00:09     174.127     0.000
  19000SG                 0.12    14.196      0  00:43       2.770     0.000
  24000SG                 0.49   109.018      0  00:35     148.771     0.000
  74000SG                 0.72   840.297      0  01:02    1700.259     0.000
  119000SG                0.37  2060.604      0  00:14    2071.815     0.000
  0SG                     3.56    74.285      0  01:42     344.797     0.000
  
  
  **********************
  Storage Volume Summary
  **********************
  
  ------------------------------------------------------------------------------------------------
                         Average    Avg   Evap  Exfil     Maximum    Max    Time of Max    Maximum
                          Volume   Pcnt   Pcnt   Pcnt      Volume   Pcnt     Occurrence    Outflow
  Storage Unit           1000 m³   Full   Loss   Loss     1000 m³   Full    days hr:min        CMS
  ------------------------------------------------------------------------------------------------
  0SG                      7.612   84.6    0.0    0.0       9.000  100.0       0  00:00     25.869
  0DN                      7.542   37.3    0.0    0.0      20.200  100.0       0  00:00   1791.205
  
  
  ***********************
  Outfall Loading Summary
  ***********************
  
  -----------------------------------------------------------
                         Flow       Avg       Max       Total
                         Freq      Flow      Flow      Volume
  Outfall Node           Pcnt       CMS       CMS    10^6 ltr
  -----------------------------------------------------------
  158108DN             100.00   498.712 16910.670  221009.609
  -----------------------------------------------------------
  System               100.00   498.712 16910.670  221009.609
  
  
  ********************
  Link Flow Summary
  ********************
  
  -----------------------------------------------------------------------------
                                 Maximum  Time of Max   Maximum    Max/    Max/
                                  |Flow|   Occurrence   |Veloc|    Full    Full
  Link                 Type          CMS  days hr:min     m/sec    Flow   Depth
  -----------------------------------------------------------------------------
  C1                   CHANNEL  1791.205     0  00:23      1.17   15.17    0.99
  C2                   CHANNEL  4301.251     0  00:23      3.07   37.09    0.99
  C3                   CHANNEL  5878.320     0  00:18      4.41    0.96    1.00
  C4                   CHANNEL  9811.736     0  00:09      3.95    0.77    1.00
  C5                   CHANNEL  5245.925     0  00:39      2.24   39.31    1.00
  C6                   CHANNEL  4454.492     0  00:27      1.59    0.29    1.00
  C7                   CHANNEL  4919.650     0  00:55      1.94    0.47    1.00
  C8                   CHANNEL  5269.263     0  00:42      1.97   34.96    1.00
  C9                   CHANNEL  5009.218     0  00:48      3.94    0.48    0.90
  C10                  CHANNEL  4457.491     0  00:50      3.42    0.38    0.97
  C11                  CHANNEL  4272.765     0  01:07      3.30   46.66    1.00
  C12                  CHANNEL 15059.179     0  00:11      2.79    1.05    1.00
  C13                  CHANNEL  3458.946     0  03:02      1.24    0.42    1.00
  C14                  CHANNEL  3654.822     0  03:02      1.41   16.62    0.84
  C15                  CHANNEL  3830.699     0  02:56      1.62    0.09    0.81
  C16                  CHANNEL  3884.053     0  02:52      1.23    0.13    0.88
  C17                  CHANNEL  4358.098     0  02:41      0.90    0.17    1.00
  C18                  CHANNEL  4302.865     0  01:54      0.78    0.29    0.98
  C19                  CHANNEL  4757.715     0  02:03      0.90    0.09    0.87
  C20                  CHANNEL  4951.246     0  02:12      0.84    0.18    1.00
  C21                  CHANNEL  5455.834     0  02:12      0.97   14.36    1.00
  C22                  CHANNEL  4977.222     0  02:19      1.87    0.26    0.91
  C23                  CHANNEL  4813.250     0  02:31      1.64   22.94    0.98
  C24                  CHANNEL  7608.096     0  01:05      0.87    0.36    1.00
  C25                  CHANNEL 18561.642     0  00:31      2.09    0.12    1.00
  C26                  CHANNEL 22362.660     0  00:30      1.72    0.31    0.92
  C27                  CHANNEL 22227.822     0  00:16      1.52    0.23    0.93
  C28                  CHANNEL 42632.956     0  00:09      3.96    0.13    0.85
  C29                  CHANNEL 33075.578     0  00:09      3.24    0.28    1.00
  C30                  CHANNEL 60530.711     0  00:01      6.26    0.35    1.00
  C31                  CHANNEL 76722.496     0  00:00     11.52    0.90    1.00
  C32                  CHANNEL 68181.756     0  00:01      7.63    0.35    1.00
  C33                  CHANNEL 53433.991     0  00:03      5.75    0.26    1.00
  C34                  CHANNEL 38620.170     0  00:05      4.52    0.35    1.00
  C35                  CHANNEL 34173.993     0  00:06      4.96    0.33    1.00
  C36                  CHANNEL 32311.934     0  00:08      3.22    0.29    0.93
  C37                  CHANNEL 27869.813     0  00:09      2.82    0.27    0.94
  C38                  CHANNEL 23789.715     0  00:10      2.45    0.17    0.94
  C39                  CHANNEL 21872.826     0  00:11      2.10    0.15    0.97
  C40                  CHANNEL 22190.547     0  00:12      1.78    0.13    1.00
  C41                  CHANNEL 21442.552     0  00:13      2.05    0.12    0.96
  C42                  CHANNEL 23297.585     0  00:14      2.27    0.16    0.97
  C43                  CHANNEL 23264.669     0  00:14      2.01    0.32    1.00
  C44                  CHANNEL 22288.718     0  00:15      1.91    8.87    1.00
  C45                  CHANNEL 21459.655     0  00:16      1.69    0.10    1.00
  C46                  CHANNEL 20491.627     0  00:17      1.65    0.11    0.99
  C47                  CHANNEL 19736.498     0  00:18      1.74    0.15    0.99
  C48                  CHANNEL 18837.507     0  00:19      2.18    0.09    0.83
  C49                  CHANNEL 19520.053     0  00:20      1.58    0.18    1.00
  C50                  CHANNEL 19188.739     0  00:21      1.48    0.14    1.00
  C51                  CHANNEL 18913.271     0  00:21      1.39    0.12    0.99
  C52                  CHANNEL 20085.820     0  00:22      1.47    0.52    0.99
  C53                  CHANNEL 20038.459     0  00:23      1.52    0.07    0.93
  C54                  CHANNEL 18477.940     0  00:22      1.16    0.15    0.99
  C55                  CHANNEL 17009.452     0  00:24      1.15    0.21    1.00
  C56                  CHANNEL 15985.547     0  00:25      1.20    0.07    0.94
  C57                  CHANNEL 16159.617     0  00:26      1.20    0.07    0.94
  C58                  CHANNEL 16963.366     0  00:28      1.17    0.32    0.99
  C59                  CHANNEL 17396.676     0  00:28      1.22    0.08    0.96
  C60                  CHANNEL 17403.595     0  00:30      1.34    0.13    0.97
  C61                  CHANNEL 18962.897     0  00:30      1.34    0.10    0.99
  C62                  CHANNEL 17988.333     0  00:31      1.26    0.10    1.00
  C63                  CHANNEL 17418.190     0  00:31      1.15    0.09    0.99
  C64                  CHANNEL 16657.489     0  00:33      1.14    0.25    0.98
  C65                  CHANNEL 16847.678     0  00:33      1.05    0.13    1.00
  C66                  CHANNEL 17449.436     0  00:34      1.06    0.11    0.99
  C68                  CHANNEL 16074.338     0  00:35      1.03    0.37    0.97
  C69                  CHANNEL 17201.040     0  00:34      1.07    0.13    1.00
  C70                  CHANNEL 15234.769     0  00:36      1.00    0.22    1.00
  C71                  CHANNEL 14569.505     0  00:37      1.03    0.09    0.94
  C72                  CHANNEL 13867.247     0  00:38      0.82    0.17    1.00
  C73                  CHANNEL 10140.703     0  00:39      0.54    0.11    1.00
  C74                  CHANNEL 10207.866     0  00:08      0.43    0.05    0.98
  C75                  CHANNEL  7800.013     0  01:16      0.44    0.10    0.91
  C76                  CHANNEL  9629.879     0  01:46      0.45    0.05    0.88
  C77                  CHANNEL  9401.824     0  00:56      0.45    0.07    0.91
  C78                  CHANNEL 12128.071     0  00:25      0.47    0.11    0.99
  C79                  CHANNEL 16910.670     0  00:14      0.68    0.60    0.96
  C80                  CHANNEL    74.287     0  01:42      0.22    7.56    0.99
  C81                  CHANNEL    71.338     0  04:51      0.19    0.16    1.00
  C82                  CHANNEL    93.979     0  05:04      0.27   12.51    1.00
  C83                  CHANNEL   112.907     0  05:19      0.34    0.29    0.96
  C84                  CHANNEL   137.639     0  05:34      0.37    0.42    1.00
  C85                  CHANNEL   167.410     0  05:47      0.26    0.26    1.00
  C86                  CHANNEL   212.689     0  05:50      0.46    0.24    0.89
  C87                  CHANNEL   300.190     0  04:49      0.49    0.29    0.96
  C88                  CHANNEL   407.389     0  04:30      0.56    0.37    0.97
  C89                  CHANNEL   519.925     0  04:10      0.55    0.52    0.98
  C90                  CHANNEL   668.465     0  03:51      0.64    0.23    0.87
  C91                  CHANNEL   909.728     0  03:33      0.68    0.35    0.95
  C92                  CHANNEL  1509.642     0  03:09      0.69    0.64    1.00
  C93                  CHANNEL  2438.879     0  02:05      1.19    0.45    0.93
  C94                  CHANNEL  2414.629     0  01:52      1.13    0.30    0.94
  C95                  CHANNEL  3165.873     0  02:27      1.19    0.78    0.98
  C96                  CHANNEL  3215.503     0  01:34      1.09    0.91    1.00
  C97                  CHANNEL  4104.963     0  01:24      1.70    0.12    0.90
  C98                  CHANNEL  5169.822     0  01:07      1.58    0.15    1.00
  C99                  CHANNEL  5327.194     0  01:49      1.29    0.44    1.00
  C100                 CHANNEL  5842.615     0  00:49      1.44    0.15    1.00
  C101                 CHANNEL  6377.303     0  00:35      1.17    0.20    0.95
  C102                 CHANNEL  8951.885     0  00:25      1.59   16.25    0.99
  C67                  CHANNEL  9468.792     0  00:15      1.70    0.46    0.97
  
  
  ***************************
  Flow Classification Summary
  ***************************
  
  -------------------------------------------------------------------------------------
                      Adjusted    ---------- Fraction of Time in Flow Class ---------- 
                       /Actual         Up    Down  Sub   Sup   Up    Down  Norm  Inlet 
  Conduit               Length    Dry  Dry   Dry   Crit  Crit  Crit  Crit  Ltd   Ctrl  
  -------------------------------------------------------------------------------------
  C1                      1.00   0.00  0.00  0.00  1.00  0.00  0.00  0.00  0.00  0.00
  C2                      1.00   0.00  0.00  0.00  1.00  0.00  0.00  0.00  0.00  0.00
  C3                      1.00   0.00  0.00  0.00  1.00  0.00  0.00  0.00  0.00  0.00
  C4                      1.00   0.00  0.00  0.00  1.00  0.00  0.00  0.00  0.00  0.00
  C5                      1.00   0.00  0.00  0.00  1.00  0.00  0.00  0.00  0.00  0.00
  C6                      1.00   0.00  0.00  0.00  1.00  0.00  0.00  0.00  0.00  0.00
  C7                      1.00   0.00  0.00  0.00  1.00  0.00  0.00  0.00  0.00  0.00
  C8                      1.00   0.00  0.00  0.00  1.00  0.00  0.00  0.00  0.00  0.00
  C9                      1.00   0.00  0.00  0.00  1.00  0.00  0.00  0.00  0.00  0.00
  C10                     1.00   0.00  0.00  0.00  1.00  0.00  0.00  0.00  0.00  0.00
  C11                     1.00   0.00  0.00  0.00  1.00  0.00  0.00  0.00  0.00  0.00
  C12                     1.00   0.00  0.00  0.00  1.00  0.00  0.00  0.00  0.00  0.00
  C13                     1.00   0.00  0.00  0.00  1.00  0.00  0.00  0.00  0.00  0.00
  C14                     1.00   0.00  0.00  0.00  1.00  0.00  0.00  0.00  0.00  0.00
  C15                     1.00   0.00  0.00  0.00  1.00  0.00  0.00  0.00  0.00  0.00
  C16                     1.00   0.00  0.00  0.00  1.00  0.00  0.00  0.00  0.00  0.00
  C17                     1.00   0.00  0.00  0.00  1.00  0.00  0.00  0.00  0.00  0.00
  C18                     1.00   0.00  0.00  0.00  1.00  0.00  0.00  0.00  0.00  0.00
  C19                     1.00   0.00  0.00  0.00  1.00  0.00  0.00  0.00  0.00  0.00
  C20                     1.00   0.00  0.00  0.00  1.00  0.00  0.00  0.00  0.00  0.00
  C21                     1.00   0.00  0.00  0.00  1.00  0.00  0.00  0.00  0.00  0.00
  C22                     1.00   0.00  0.00  0.00  1.00  0.00  0.00  0.00  0.00  0.00
  C23                     1.00   0.00  0.00  0.00  1.00  0.00  0.00  0.00  0.00  0.00
  C24                     1.00   0.00  0.00  0.00  1.00  0.00  0.00  0.00  0.00  0.00
  C25                     1.00   0.00  0.00  0.00  1.00  0.00  0.00  0.00  0.00  0.00
  C26                     1.00   0.00  0.00  0.00  1.00  0.00  0.00  0.00  0.00  0.00
  C27                     1.00   0.00  0.00  0.00  1.00  0.00  0.00  0.00  0.00  0.00
  C28                     1.00   0.00  0.00  0.00  1.00  0.00  0.00  0.00  0.00  0.00
  C29                     1.00   0.00  0.00  0.00  1.00  0.00  0.00  0.00  0.00  0.00
  C30                     1.00   0.00  0.00  0.00  1.00  0.00  0.00  0.00  0.00  0.00
  C31                     1.00   0.00  0.00  0.00  1.00  0.00  0.00  0.00  0.00  0.00
  C32                     1.00   0.00  0.00  0.00  1.00  0.00  0.00  0.00  0.00  0.00
  C33                     1.00   0.00  0.00  0.00  1.00  0.00  0.00  0.00  0.00  0.00
  C34                     1.00   0.00  0.00  0.00  1.00  0.00  0.00  0.00  0.00  0.00
  C35                     1.00   0.00  0.00  0.00  1.00  0.00  0.00  0.00  0.00  0.00
  C36                     1.00   0.00  0.00  0.00  1.00  0.00  0.00  0.00  0.00  0.00
  C37                     1.00   0.00  0.00  0.00  1.00  0.00  0.00  0.00  0.00  0.00
  C38                     1.00   0.00  0.00  0.00  1.00  0.00  0.00  0.00  0.00  0.00
  C39                     1.00   0.00  0.00  0.00  1.00  0.00  0.00  0.00  0.00  0.00
  C40                     1.00   0.00  0.00  0.00  1.00  0.00  0.00  0.00  0.00  0.00
  C41                     1.00   0.00  0.00  0.00  1.00  0.00  0.00  0.00  0.00  0.00
  C42                     1.00   0.00  0.00  0.00  1.00  0.00  0.00  0.00  0.00  0.00
  C43                     1.00   0.00  0.00  0.00  1.00  0.00  0.00  0.00  0.00  0.00
  C44                     1.00   0.00  0.00  0.00  1.00  0.00  0.00  0.00  0.00  0.00
  C45                     1.00   0.00  0.00  0.00  1.00  0.00  0.00  0.00  0.00  0.00
  C46                     1.00   0.00  0.00  0.00  1.00  0.00  0.00  0.00  0.00  0.00
  C47                     1.00   0.00  0.00  0.00  1.00  0.00  0.00  0.00  0.00  0.00
  C48                     1.00   0.00  0.00  0.00  1.00  0.00  0.00  0.00  0.00  0.00
  C49                     1.00   0.00  0.00  0.00  1.00  0.00  0.00  0.00  0.00  0.00
  C50                     1.00   0.00  0.00  0.00  1.00  0.00  0.00  0.00  0.00  0.00
  C51                     1.00   0.00  0.00  0.00  1.00  0.00  0.00  0.00  0.00  0.00
  C52                     1.00   0.00  0.00  0.00  1.00  0.00  0.00  0.00  0.00  0.00
  C53                     1.00   0.00  0.00  0.00  1.00  0.00  0.00  0.00  0.00  0.00
  C54                     1.00   0.00  0.00  0.00  1.00  0.00  0.00  0.00  0.00  0.00
  C55                     1.00   0.00  0.00  0.00  1.00  0.00  0.00  0.00  0.00  0.00
  C56                     1.00   0.00  0.00  0.00  1.00  0.00  0.00  0.00  0.00  0.00
  C57                     1.00   0.00  0.00  0.00  1.00  0.00  0.00  0.00  0.00  0.00
  C58                     1.00   0.00  0.00  0.00  1.00  0.00  0.00  0.00  0.00  0.00
  C59                     1.00   0.00  0.00  0.00  1.00  0.00  0.00  0.00  0.00  0.00
  C60                     1.00   0.00  0.00  0.00  1.00  0.00  0.00  0.00  0.00  0.00
  C61                     1.00   0.00  0.00  0.00  1.00  0.00  0.00  0.00  0.00  0.00
  C62                     1.00   0.00  0.00  0.00  1.00  0.00  0.00  0.00  0.00  0.00
  C63                     1.00   0.00  0.00  0.00  1.00  0.00  0.00  0.00  0.00  0.00
  C64                     1.00   0.00  0.00  0.00  1.00  0.00  0.00  0.00  0.00  0.00
  C65                     1.00   0.00  0.00  0.00  1.00  0.00  0.00  0.00  0.00  0.00
  C66                     1.00   0.00  0.00  0.00  1.00  0.00  0.00  0.00  0.00  0.00
  C68                     1.00   0.00  0.00  0.00  1.00  0.00  0.00  0.00  0.00  0.00
  C69                     1.00   0.00  0.00  0.00  1.00  0.00  0.00  0.00  0.00  0.00
  C70                     1.00   0.00  0.00  0.00  1.00  0.00  0.00  0.00  0.00  0.00
  C71                     1.00   0.00  0.00  0.00  1.00  0.00  0.00  0.00  0.00  0.00
  C72                     1.00   0.00  0.00  0.00  1.00  0.00  0.00  0.00  0.00  0.00
  C73                     1.00   0.00  0.00  0.00  1.00  0.00  0.00  0.00  0.00  0.00
  C74                     1.00   0.00  0.00  0.00  1.00  0.00  0.00  0.00  0.00  0.00
  C75                     1.00   0.00  0.00  0.00  1.00  0.00  0.00  0.00  0.00  0.00
  C76                     1.00   0.00  0.00  0.00  1.00  0.00  0.00  0.00  0.00  0.00
  C77                     1.00   0.00  0.00  0.00  1.00  0.00  0.00  0.00  0.00  0.00
  C78                     1.00   0.00  0.00  0.00  1.00  0.00  0.00  0.00  0.00  0.00
  C79                     1.00   0.00  0.00  0.00  1.00  0.00  0.00  0.00  0.00  0.00
  C80                     1.00   0.00  0.00  0.00  1.00  0.00  0.00  0.00  0.00  0.00
  C81                     1.00   0.00  0.00  0.00  1.00  0.00  0.00  0.00  0.00  0.00
  C82                     1.00   0.00  0.00  0.00  1.00  0.00  0.00  0.00  0.00  0.00
  C83                     1.00   0.00  0.00  0.00  1.00  0.00  0.00  0.00  0.00  0.00
  C84                     1.00   0.00  0.00  0.00  1.00  0.00  0.00  0.00  0.00  0.00
  C85                     1.00   0.00  0.00  0.00  1.00  0.00  0.00  0.00  0.00  0.00
  C86                     1.00   0.00  0.00  0.00  1.00  0.00  0.00  0.00  0.00  0.00
  C87                     1.00   0.00  0.00  0.00  1.00  0.00  0.00  0.00  0.00  0.00
  C88                     1.00   0.00  0.00  0.00  1.00  0.00  0.00  0.00  0.00  0.00
  C89                     1.00   0.00  0.00  0.00  1.00  0.00  0.00  0.00  0.00  0.00
  C90                     1.00   0.00  0.00  0.00  1.00  0.00  0.00  0.00  0.00  0.00
  C91                     1.00   0.00  0.00  0.00  1.00  0.00  0.00  0.00  0.00  0.00
  C92                     1.00   0.00  0.00  0.00  1.00  0.00  0.00  0.00  0.00  0.00
  C93                     1.00   0.00  0.00  0.00  1.00  0.00  0.00  0.00  0.00  0.00
  C94                     1.00   0.00  0.00  0.00  1.00  0.00  0.00  0.00  0.00  0.00
  C95                     1.00   0.00  0.00  0.00  1.00  0.00  0.00  0.00  0.00  0.00
  C96                     1.00   0.00  0.00  0.00  1.00  0.00  0.00  0.00  0.00  0.00
  C97                     1.00   0.00  0.00  0.00  1.00  0.00  0.00  0.00  0.00  0.00
  C98                     1.00   0.00  0.00  0.00  1.00  0.00  0.00  0.00  0.00  0.00
  C99                     1.00   0.00  0.00  0.00  1.00  0.00  0.00  0.00  0.00  0.00
  C100                    1.00   0.00  0.00  0.00  1.00  0.00  0.00  0.00  0.00  0.00
  C101                    1.00   0.00  0.00  0.00  1.00  0.00  0.00  0.00  0.00  0.00
  C102                    1.00   0.00  0.00  0.00  1.00  0.00  0.00  0.00  0.00  0.00
  C67                     1.00   0.00  0.00  0.00  1.00  0.00  0.00  0.00  0.00  0.00
  
  
  *************************
  Conduit Surcharge Summary
  *************************
  
  ----------------------------------------------------------------------------
                                                           Hours        Hours 
                         --------- Hours Full --------   Above Full   Capacity
  Conduit                Both Ends  Upstream  Dnstream   Normal Flow   Limited
  ----------------------------------------------------------------------------
  C1                          0.01      0.01      0.01      1.38         0.01
  C2                          0.01      0.01      0.01      4.05         0.01
  C3                          0.01      0.09      0.01      0.01         0.01
  C4                          0.12      0.14      0.49      0.01         0.12
  C5                          0.12      0.49      0.12      6.32         0.01
  C6                          0.01      0.01      1.06      0.01         0.01
  C7                          0.07      0.10      0.51      0.01         0.07
  C8                          0.27      0.51      0.27     10.34         0.01
  C10                         0.01      0.01      0.01      0.01         0.01
  C11                         0.01      0.01      0.01     16.48         0.01
  C12                         1.91      1.91      8.09      0.10         0.01
  C13                         0.13      0.13      3.17      0.01         0.01
  C14                         0.01      0.01      0.01     11.67         0.01
  C17                         0.35      0.35    144.00      0.01         0.01
  C18                         0.01      0.01      0.30      0.01         0.01
  C19                         0.01      0.01      0.51      0.01         0.01
  C20                         0.60      0.60      5.83      0.01         0.01
  C21                         0.31      0.60      0.43     12.13         0.01
  C23                         0.01      0.01      0.01     17.96         0.01
  C24                         0.01      0.01    144.00      0.01         0.01
  C25                         0.01      0.01    144.00      0.01         0.01
  C27                         0.01      0.01      0.07      0.01         0.01
  C28                         0.01      0.01      0.54      0.01         0.01
  C29                         0.12      0.12    144.00      0.01         0.01
  C30                         0.12      0.12    144.00      0.01         0.01
  C31                         0.01      0.02      4.50      0.01         0.01
  C32                         0.06      0.06    143.90      0.01         0.01
  C33                         0.02      0.02    144.00      0.01         0.01
  C34                         0.34      0.34    143.93      0.01         0.02
  C35                         0.01      0.01      0.12      0.01         0.01
  C38                         0.01      0.01      0.09      0.01         0.01
  C39                         0.01      0.01      0.09      0.01         0.01
  C40                         0.37      0.37    144.00      0.01         0.01
  C41                         0.01      0.01      0.11      0.01         0.01
  C42                         0.01      0.01      0.13      0.01         0.01
  C43                         0.01      0.01      0.19      0.01         0.01
  C44                         0.01      0.01      0.01      4.70         0.01
  C45                         0.01      0.01    144.00      0.01         0.01
  C46                         0.01      0.01    144.00      0.01         0.01
  C47                         0.01      0.01      3.28      0.01         0.01
  C49                         0.01      0.01    141.77      0.01         0.01
  C50                         0.10      0.10    143.88      0.01         0.01
  C51                         0.01      0.01    140.99      0.01         0.01
  C53                         0.01      0.01      0.13      0.01         0.01
  C54                         0.01      0.01    143.97      0.01         0.01
  C55                         0.18      0.18      3.68      0.01         0.01
  C56                         0.01      0.01      0.18      0.01         0.01
  C58                         0.01      0.01      0.03      0.01         0.01
  C61                         0.01      0.01    144.00      0.01         0.01
  C62                         0.30      0.30    144.00      0.01         0.01
  C63                         0.01      0.01    143.87      0.01         0.01
  C65                         0.30      0.30    143.84      0.01         0.01
  C66                         0.01      0.01    144.00      0.01         0.01
  C69                         0.01      0.01    143.33      0.01         0.01
  C70                         0.22      0.22      3.10      0.01         0.01
  C72                         0.01      0.01    143.65      0.01         0.01
  C73                         0.02      0.02    143.96      0.01         0.01
  C74                         0.01      0.01      3.42      0.01         0.01
  C78                         0.01      0.01    144.00      0.01         0.01
  C80                         0.01      0.01      0.01      2.74         0.01
  C81                         0.01      0.01      9.47      0.01         0.01
  C82                         0.01      0.01      0.01     27.75         0.01
  C83                         0.01      0.01      0.12      0.01         0.01
  C84                         0.49      0.49      4.26      0.01         0.01
  C85                         0.44      0.44      4.90      0.01         0.01
  C87                         0.01      0.01      0.50      0.01         0.01
  C88                         0.01      0.01      0.73      0.01         0.01
  C89                         0.01      0.01      0.50      0.01         0.01
  C90                         0.01      0.01      0.67      0.01         0.01
  C91                         0.01      0.01      0.72      0.01         0.01
  C92                         0.72      0.72      3.24      0.01         0.01
  C93                         0.01      0.01      0.71      0.01         0.01
  C94                         0.01      0.01      0.77      0.01         0.01
  C96                         0.16      0.31      0.46      0.01         0.07
  C98                         0.01      0.01    144.00      0.01         0.01
  C99                         0.37      0.37      0.76      0.01         0.01
  C100                        0.01      0.01    144.00      0.01         0.01
  C102                        0.01      0.01      0.01      6.06         0.01
  

  Analysis begun on:  Thu Oct  2 00:31:34 2025
  Analysis ended on:  Thu Oct  2 00:31:36 2025
  Total elapsed time: 00:00:02